                                  MODFLOW-NWT-SWR1 
      U.S. GEOLOGICAL SURVEY MODULAR FINITE-DIFFERENCE GROUNDWATER-FLOW MODEL
                            VERSION 1.0.9 07/01/2014
                    BASED ON MODFLOW-2005 VERSION 1.11.00 08/30/2013

 LIST FILE: H:\MODELS\TUCSON\2010_MODEL\results\gmres_solution.lst
                         UNIT   30

 OPENING H:\MODFLOW\POST\4010.hds
 FILE TYPE:DATA   UNIT   31   STATUS:UNKNOWN
 FORMAT:FORMATTED              ACCESS:SEQUENTIAL          

 OPENING H:\MODELS\TUCSON\2010_MODEL\RESULTS\graphs.out
 FILE TYPE:DATA(BINARY)   UNIT   33   STATUS:UNKNOWN
 FORMAT:BINARY                 ACCESS:SEQUENTIAL          

 OPENING H:\MODELS\TUCSON\2010_MODEL\RESULTS\hobs.dat
 FILE TYPE:DATA   UNIT   34   STATUS:UNKNOWN
 FORMAT:FORMATTED              ACCESS:SEQUENTIAL          

 OPENING H:\MODELS\TUCSON\2010_MODEL\RESULTS\lost_pumpage.dat
 FILE TYPE:DATA   UNIT   35   STATUS:UNKNOWN
 FORMAT:FORMATTED              ACCESS:SEQUENTIAL          

 OPENING H:\MODFLOW\zonebud\zonebud3\bin\cbc.bgt
 FILE TYPE:DATA(BINARY)   UNIT   39   STATUS:UNKNOWN
 FORMAT:BINARY                 ACCESS:SEQUENTIAL                                                                                                                                                                                                                                            
#                                                                                                                                                                                                                                                                                                           
#  Observation files                                                                                                                                                                                                                                                                                        
#                                                                                                                                                                                                                                                                                                           

 OPENING H:\MODELS\TUCSON\2010_MODEL\BIN\tuc2011d.hob
 FILE TYPE:HOB   UNIT    8   STATUS:OLD    
 FORMAT:FORMATTED              ACCESS:SEQUENTIAL          

 OPENING H:\MODELS\TUCSON\2010_MODEL\BIN\tuchyd93.hyd
 FILE TYPE:HYD   UNIT    9   STATUS:OLD    
 FORMAT:FORMATTED              ACCESS:SEQUENTIAL                                                                                                                                                                                                                                           
#                                                                                                                                                                                                                                                                                                           
#  Parameter Files                                                                                                                                                                                                                                                                                          

 OPENING H:\MODELS\TUCSON\2010_MODEL\BIN\tuc1940q1.dis
 FILE TYPE:DIS   UNIT   10   STATUS:OLD    
 FORMAT:FORMATTED              ACCESS:SEQUENTIAL          

 OPENING H:\MODELS\TUCSON\2010_MODEL\BIN\tuc1940z.bas
 FILE TYPE:BAS6   UNIT   11   STATUS:OLD    
 FORMAT:FORMATTED              ACCESS:SEQUENTIAL          

 OPENING H:\MODELS\TUCSON\2010_MODEL\BIN\tuc1940t.upw
 FILE TYPE:UPW   UNIT   12   STATUS:OLD    
 FORMAT:FORMATTED              ACCESS:SEQUENTIAL                                                                                                                                                                                                                                     

 OPENING H:\MODELS\TUCSON\2010_MODEL\BIN\tuc2010q10.wel
 FILE TYPE:WEL   UNIT   13   STATUS:OLD    
 FORMAT:FORMATTED              ACCESS:SEQUENTIAL          

 OPENING H:\MODELS\TUCSON\2010_MODEL\BIN\TUC1940d.EVT
 FILE TYPE:EVT   UNIT   14   STATUS:OLD    
 FORMAT:FORMATTED              ACCESS:SEQUENTIAL          

 OPENING H:\MODELS\TUCSON\2010_MODEL\BIN\tuc2010a3.chd
 FILE TYPE:CHD   UNIT   15   STATUS:OLD    
 FORMAT:FORMATTED              ACCESS:SEQUENTIAL          

 OPENING H:\MODELS\TUCSON\2010_MODEL\BIN\tuc2010n1.rch
 FILE TYPE:RCH   UNIT   16   STATUS:OLD    
 FORMAT:FORMATTED              ACCESS:SEQUENTIAL          
#  Solver & Output Control                                                                                                                                                                                                                                                                                  

 OPENING H:\MODELS\TUCSON\2010_MODEL\BIN\gmres1.NWT
 FILE TYPE:NWT   UNIT   19   STATUS:OLD    
 FORMAT:FORMATTED              ACCESS:SEQUENTIAL          

 OPENING H:\MODELS\TUCSON\2010_MODEL\BIN\tuc4010a5.OC
 FILE TYPE:OC   UNIT   22   STATUS:OLD    
 FORMAT:FORMATTED              ACCESS:SEQUENTIAL          

 BAS -- BASIC PACKAGE, VERSION 7, 5/2/2005 INPUT READ FROM UNIT   11
 
 MODFLOW was compiled using mixed precision
 Precision of REAL variables:           6
 Precision of DOUBLE PRECISION variables:          15

 DISCRETIZATION INPUT DATA READ FROM UNIT   10
 # TUCSON AMA GROUNDWATER FLOW MODEL - 1940-2010 UPDATE
 # MODEL DISCRETIZATION FILE: 08/08/2012
 # STEADY-STATE - TRANSIENT PHASE: 1940-2008  LENGTH=FEET  TIME=DAYS
    3 LAYERS       130 ROWS       100 COLUMNS
   71 STRESS PERIOD(S) IN SIMULATION
 MODEL TIME UNIT IS DAYS
 MODEL LENGTH UNIT IS FEET
  Confining bed flag for each layer:
   0   0   0

                     DELR =   2640.00    

                     DELC =   2640.00    



           TOP ELEVATION OF LAYER 1
 READING ON UNIT   10 WITH FORMAT: (15F5.0)            



             MODEL LAYER BOTTOM EL. FOR LAYER   1
 READING ON UNIT   10 WITH FORMAT: (15F5.0)            



             MODEL LAYER BOTTOM EL. FOR LAYER   2
 READING ON UNIT   10 WITH FORMAT: (15F5.0)            



             MODEL LAYER BOTTOM EL. FOR LAYER   3
 READING ON UNIT   10 WITH FORMAT: (15F5.0)            


 STRESS PERIOD     LENGTH       TIME STEPS     MULTIPLIER FOR DELT    SS FLAG
 ----------------------------------------------------------------------------
        1         366.0000          1                    1.000         SS
        2         365.0000         12                    1.000         TR
        3         365.0000         12                    1.000         TR
        4         365.0000         12                    1.000         TR
        5         366.0000         12                    1.000         TR
        6         365.0000         12                    1.000         TR
        7         365.0000         12                    1.000         TR
        8         365.0000         12                    1.000         TR
        9         366.0000         12                    1.000         TR
       10         365.0000         12                    1.000         TR
       11         365.0000         12                    1.000         TR
       12         365.0000         12                    1.000         TR
       13         366.0000         12                    1.000         TR
       14         365.0000         12                    1.000         TR
       15         365.0000         12                    1.000         TR
       16         365.0000         12                    1.000         TR
       17         366.0000         12                    1.000         TR
       18         365.0000         12                    1.000         TR
       19         365.0000         12                    1.000         TR
       20         365.0000         12                    1.000         TR
       21         366.0000         12                    1.000         TR
       22         365.0000         12                    1.000         TR
       23         365.0000         12                    1.000         TR
       24         365.0000         12                    1.000         TR
       25         366.0000         12                    1.000         TR
       26         365.0000         12                    1.000         TR
       27         365.0000         12                    1.000         TR
       28         365.0000         12                    1.000         TR
       29         366.0000         12                    1.000         TR
       30         365.0000         12                    1.000         TR
       31         365.0000         12                    1.000         TR
       32         365.0000         12                    1.000         TR
       33         366.0000         12                    1.000         TR
       34         365.0000         12                    1.000         TR
       35         365.0000         12                    1.000         TR
       36         365.0000         12                    1.000         TR
       37         366.0000         12                    1.000         TR
       38         365.0000         12                    1.000         TR
       39         365.0000         12                    1.000         TR
       40         365.0000         12                    1.000         TR
       41         366.0000         12                    1.000         TR
       42         365.0000         12                    1.000         TR
       43         365.0000         12                    1.000         TR
       44         365.0000         12                    1.000         TR
       45         366.0000         12                    1.000         TR
       46         365.0000         12                    1.000         TR
       47         365.0000         12                    1.000         TR
       48         365.0000         12                    1.000         TR
       49         366.0000         12                    1.000         TR
       50         365.0000         12                    1.000         TR
       51         365.0000         12                    1.000         TR
       52         365.0000         12                    1.000         TR
       53         366.0000         12                    1.000         TR
       54         365.0000         12                    1.000         TR
       55         365.0000         12                    1.000         TR
       56         365.0000         12                    1.000         TR
       57         366.0000         12                    1.000         TR
       58         365.0000         12                    1.000         TR
       59         365.0000         12                    1.000         TR
       60         365.0000         12                    1.000         TR
       61         366.0000         12                    1.000         TR
       62         365.0000         12                    1.000         TR
       63         365.0000         12                    1.000         TR
       64         365.0000         12                    1.000         TR
       65         366.0000         12                    1.000         TR
       66         365.0000         12                    1.000         TR
       67         365.0000         12                    1.000         TR
       68         365.0000         12                    1.000         TR
       69         366.0000         12                    1.000         TR
       70         365.0000         12                    1.000         TR
       71         365.0000         12                    1.000         TR

 COMBINED STEADY-STATE AND TRANSIENT SIMULATION



 
 # TUCSON AMA GROUNDWATER FLOW MODEL                                             
 # MODFLOW BASIC PACKAGE - 4/17/2014                                             
 # TRANSIENT PROJECTION: 1940-2010
 # MODEL UNITS: LENGTH=FEET  TIME=DAYS  PERLIN=365 DAYS
 THE FREE FORMAT OPTION HAS BEEN SELECTED



                     BOUNDARY ARRAY FOR LAYER   1
 READING ON UNIT   11 WITH FORMAT: (FREE)              



                     BOUNDARY ARRAY FOR LAYER   2
 READING ON UNIT   11 WITH FORMAT: (FREE)              



                     BOUNDARY ARRAY FOR LAYER   3
 READING ON UNIT   11 WITH FORMAT: (FREE)              

 AQUIFER HEAD WILL BE SET TO   0.0000     AT ALL NO-FLOW NODES (IBOUND=0).



                       INITIAL HEAD FOR LAYER   1
 READING ON UNIT   11 WITH FORMAT: (15F5.0)            



                       INITIAL HEAD FOR LAYER   2
 READING ON UNIT   11 WITH FORMAT: (15F5.0)            



                       INITIAL HEAD FOR LAYER   3
 READING ON UNIT   11 WITH FORMAT: (15F5.0)            

 OUTPUT CONTROL IS SPECIFIED ONLY AT TIME STEPS FOR WHICH OUTPUT IS DESIRED
 HEADS WILL BE SAVED WITH FORMAT: (20f7.1)            
 SAVED HEADS WILL BE LABELED
 COMPACT CELL-BY-CELL BUDGET FILES WILL BE WRITTEN
 HEAD PRINT FORMAT CODE IS   0    DRAWDOWN PRINT FORMAT CODE IS   0
 HEADS WILL BE SAVED ON UNIT   31    DRAWDOWNS WILL BE SAVED ON UNIT    0
 # GMRES solver
 #HEADTOL  FLUXTOL MAXITEROUT THICKFACT LINMETH IPRNWT IBOTAV OPTIONS    DBDREDUCE DBDINCREASE DBDGAMMA MOMFACT BACKFLAG MAXBACKITER BACKTOL BACKREDUCE

 NWT1 -- Newton Solver, VERSION 1.0.9, 07/01/2014
         INPUT READ FROM UNIT 19

 SPECIFIED OPTION:
 SOLVER INPUT VALUES ARE SPECIFIED BY USER
 ***GMRES linear solver will be used***
 
   CONVERGENCE CRITERION OF   0.100000E-01 FOR HEAD SOLUTION
   AND A TOLERANCE OF   0.864000E+03 FOR FLOW SOLUTION AND 
   A MAXIMUM OF   500 OUTER ITERATIONS. 


   D-B-D REDUCTION FACTOR OF    0.900000E+00 AND 
   A D-B-D INCREASE FACTOR OF    0.100000E-03 AND 
   A D-B-D RELAXATION OF    0.000000E+00 AND 
   A MOMENTUM FACTOR OF    0.100000E+00 .


 ***BACKTRACKING IS INACTIVE***
 GMRES -- LINEAR SOLUTION BY GMRES PACKAGE 
     adapted for HYDROTHERM by Kipp and others (2008)
     using software originally developed by Saad (1990) 19
     using algorithms described in Saad (2003)

 UPW1 -- UPSTREAM WEIGHTING FLOW PACKAGE, VERSION 1.0.6, 12/05/2012
         INPUT READ FROM UNIT 12

 # TUCSON AMA GROUNDWATER FLOW MODEL - 1940-2010
 # Upstream-Weighting Package (UPW): 04/17/2014
 # STEADY-STATE/TRANSIENT PHASE: 1940-2010
 CELL-BY-CELL FLOWS WILL BE SAVED ON UNIT   39
 No named parameters

   LAYER FLAGS:
 LAYER       LAYTYP          LAYAVG    CHANI           LAYVKA           LAYWET
 ---------------------------------------------------------------------------
    1             1             0     1.000E+00             1             0
    2             3             0     1.000E+00             1             0
    3             3             0     1.000E+00             1             0

   INTERPRETATION OF LAYER FLAGS:
                        INTERBLOCK     HORIZONTAL    DATA IN
         LAYER TYPE   TRANSMISSIVITY   ANISOTROPY   ARRAY VKA   WETTABILITY
 LAYER   (LAYTYP)        (LAYAVG)      (CHANI)     (LAYVKA)       (LAYWET)
 ---------------------------------------------------------------------------
    1   CONVERTIBLE      HARMONIC     1.000E+00    ANISOTROPY  NON-WETTABLE
    2   CONVERTIBLE      HARMONIC     1.000E+00    ANISOTROPY  NON-WETTABLE
    3   CONVERTIBLE      HARMONIC     1.000E+00    ANISOTROPY  NON-WETTABLE



              HYD. COND. ALONG ROWS FOR LAYER   1
 READING ON UNIT   12 WITH FORMAT: (FREE)              



            HORIZ. TO VERTICAL ANI. FOR LAYER   1
 READING ON UNIT   12 WITH FORMAT: (FREE)              

         SPECIFIC STORAGE =  1.000000E-06 FOR LAYER   1



                     SPECIFIC YIELD FOR LAYER   1
 READING ON UNIT   12 WITH FORMAT: (FREE)              



              HYD. COND. ALONG ROWS FOR LAYER   2
 READING ON UNIT   12 WITH FORMAT: (FREE)              



            HORIZ. TO VERTICAL ANI. FOR LAYER   2
 READING ON UNIT   12 WITH FORMAT: (FREE)              

         SPECIFIC STORAGE =  1.000000E-06 FOR LAYER   2



                     SPECIFIC YIELD FOR LAYER   2
 READING ON UNIT   12 WITH FORMAT: (FREE)              



              HYD. COND. ALONG ROWS FOR LAYER   3
 READING ON UNIT   12 WITH FORMAT: (FREE)              



            HORIZ. TO VERTICAL ANI. FOR LAYER   3
 READING ON UNIT   12 WITH FORMAT: (FREE)              

         SPECIFIC STORAGE =  1.000000E-06 FOR LAYER   3



                     SPECIFIC YIELD FOR LAYER   3
 READING ON UNIT   12 WITH FORMAT: (FREE)              

 WEL -- WELL PACKAGE, VERSION 1.0.6, 12/05/2012 INPUT READ FROM UNIT   13
 # Tucson Model 1940 to 2010 Pumpage File
 # File Date: 02/3/2014
 # TARP pumpage reduced by 95%
 # Source: H:\TUCSON\GIS\SHAPEFILES\MODEL_PUMPAGE1940-2010_V7.DBF
 No named parameters
 MAXIMUM OF   6000 ACTIVE WELLS AT ONE TIME
 CELL-BY-CELL FLOWS WILL BE SAVED ON UNIT   39
 LISTS OF WELL CELLS WILL NOT BE PRINTED
 No named parameters
 
 NEGATIVE PUMPING RATES WILL BE REDUCED IF HEAD 
 FALLS WITHIN THE INTERVAL PHIRAMP TIMES THE CELL 
 THICKNESS. THE VALUE SPECIFIED FOR PHIRAMP IS  0.20000E-01
 WELLS WITH REDUCED PUMPING WILL BE REPORTED TO FILE UNIT NUMBER   35


     0 Well parameters

 EVT -- EVAPOTRANSPIRATION PACKAGE, VERSION 7, 5/2/2005
         INPUT READ FROM UNIT   14
 #  TUCSON MODEL UPDATE 1940-2010: EVT PACKAGE
 #  Et Rates converted to ac-ft per year
 #  All ET set to be drawn from the upper most layer
 #  Max ET Rate increased 25%:  Multiplier increased 1.7123E-5 -> 2.1406E-5
 No named parameters
 OPTION 1 -- EVAPOTRANSPIRATION FROM TOP LAYER
 CELL-BY-CELL FLOWS WILL BE SAVED ON UNIT   39


     0 Evapotranspiration parameters

 RCH -- RECHARGE PACKAGE, VERSION 7, 5/2/2005 INPUT READ FROM UNIT   16
 #  Recharge Package 1940 -> 2010 - 04/23/2014
 #  Ag recharge percentages are 33-28-25
 #  Recharge package with mountain-front and
 #  lagged USF recharge for LSCRP fixed
 #
 No named parameters
 OPTION 3 -- RECHARGE TO HIGHEST ACTIVE NODE IN EACH VERTICAL COLUMN
 CELL-BY-CELL FLOWS WILL BE SAVED ON UNIT   39


     0 Recharge parameters

 CHD -- TIME-VARIANT SPECIFIED-HEAD OPTION, VERSION 7, 5/2/2005
 INPUT READ FROM UNIT   15
 # Constant Head Package: 1940-2010
 # Tucson Groundwater Flow Model Transient Phase
 # Created using text file test1.txt - 2/23/2012
 # Pinal heads are 8 feet less than the simulated heads
 No named parameters
 MAXIMUM OF     63 TIME-VARIANT SPECIFIED-HEAD CELLS AT ONE TIME
 LISTS OF TIME-VARIANT SPECIFIED-HEAD CELLS WILL NOT BE PRINTED


     0 TIME-VARIANT SPECIFIED-HEAD PARAMETERS

 HYD -- HYDROGRAPH DATA FOR BAS PACKAGE, VERSION 7, 07/14/2006
         INPUT READ FROM UNIT  9
 HYDROGRAPH VALUES WILL BE SAVED ON UNIT:  33
 HYDROGRAPH VALUES AT DRY CELLS WILL BE:   -666.00    

 ARR INTYP  KLAY     XL            YL         HYDLBL
 ----------------------------------------------------------------
 HD   I      2   3.47180E+04   3.26272E+05  HDI002D-10-09-12CBC 
 HD   I      2   3.17923E+04   3.21696E+05  HDI002D-10-09-14CAA 
 HD   I      2   3.97879E+04   3.15080E+05  HDI002D-10-09-24DDD 
 HD   I      2   5.02884E+04   3.31393E+05  HDI002D-10-10-05DAD 
 HD   I      1   4.83013E+04   3.14224E+05  HDI001D-10-10-20DCC 
 HD   I      3   1.67311E+05   3.29260E+05  HDI003D-10-13-12DDA 
 HD   I      2   1.76511E+05   3.12900E+05  HDI002D-10-14-29DCA 
 HD   I      2   4.73275E+04   2.95880E+05  HDI002D-11-10-08DDD 
 HD   I      2   5.79602E+04   2.94616E+05  HDI002D-11-10-15AAD 
 HD   I      2   5.77270E+04   2.87908E+05  HDI002D-11-10-22ADD1
 HD   I      2   6.83979E+04   2.90445E+05  HDI002D-11-10-24AAA 
 HD   I      2   6.83646E+04   2.80636E+05  HDI002D-11-10-25DDA2
 HD   I      2   8.22753E+04   2.91424E+05  HDI002D-11-11-16CDD1
 HD   I      3   8.22753E+04   2.91424E+05  HDI003D-11-11-16CDD1
 HD   I      2   9.15970E+04   2.83525E+05  HDI002D-11-11-26BDC 
 HD   I      2   8.99591E+04   2.78174E+05  HDI002D-11-11-34ADD 
 HD   I      3   8.99591E+04   2.78174E+05  HDI003D-11-11-34ADD 
 HD   I      2   5.24735E+04   2.64223E+05  HDI002D-12-10-09DDD 
 HD   I      2   6.44744E+04   2.64189E+05  HDI002D-12-10-12CDD2
 HD   I      3   6.44744E+04   2.64189E+05  HDI003D-12-10-12CDD2
 HD   I      2   9.67445E+04   2.67696E+05  HDI002D-12-11-12BDC 
 HD   I      2   7.95249E+04   2.59465E+05  HDI002D-12-11-20AAA 
 HD   I      2   1.13419E+05   2.63389E+05  HDI002D-12-12-16BAD 
 HD   I      2   1.20442E+05   2.57249E+05  HDI002D-12-12-22ADC 
 HD   I      2   1.15974E+05   2.48533E+05  HDI002D-12-12-33AAA 
 HD   I      2   1.36473E+05   2.50639E+05  HDI002D-12-13-30DAC 
 HD   I      2   1.69992E+05   2.69936E+05  HDI002D-12-14-05CCD 
 HD   I      3   4.96494E+04   2.37760E+05  HDI003D-13-10-04CDD 
 HD   I      3   6.03308E+04   2.21868E+05  HDI003D-13-10-23CDD 
 HD   I      2   6.83726E+04   2.11442E+05  HDI002D-13-11-31CCC1
 HD   I      3   6.83726E+04   2.11442E+05  HDI003D-13-11-31CCC1
 HD   I      2   1.37326E+05   2.43566E+05  HDI002D-13-13-06AAA2
 HD   I      2   1.27238E+05   2.38920E+05  HDI002D-13-13-06DDD 
 HD   I      2   1.39899E+05   2.38212E+05  HDI002D-13-13-08BAA 
 HD   I      2   1.59116E+05   2.33159E+05  HDI002D-13-13-13BBA 
 HD   I      1   1.42469E+05   2.29623E+05  HDI001D-13-13-17DAD 
 HD   I      1   1.44785E+05   2.27704E+05  HDI001D-13-13-21BAA 
 HD   I      2   1.47530E+05   2.19924E+05  HDI002D-13-13-28ADD 
 HD   I      2   1.47273E+05   2.13662E+05  HDI002D-13-13-33DAC 
 HD   I      2   1.62726E+05   2.12350E+05  HDI002D-13-13-36DDC 
 HD   I      2   1.63835E+05   2.27705E+05  HDI002D-13-14-19BBB1
 HD   I      2   1.85724E+05   2.22468E+05  HDI002D-13-14-26BBB 
 HD   I      2   1.81350E+05   2.17816E+05  HDI002D-13-14-27CDC1
 HD   I      2   1.84441E+05   2.16607E+05  HDI002D-13-14-34AAD 
 HD   I      1   1.91401E+05   2.12372E+05  HDI001D-13-14-36CCD 
 HD   I      1   2.15602E+05   2.17461E+05  HDI001D-13-15-27DDC 
 HD   I      2   7.39286E+04   2.00922E+05  HDI002D-14-11-08CCC1
 HD   I      3   7.39286E+04   2.00922E+05  HDI003D-14-11-08CCC1
 HD   I      2   7.87016E+04   1.85152E+05  HDI002D-14-11-29DDD 
 HD   I      3   1.49677E+05   2.08711E+05  HDI003D-14-13-03CAC 
 HD   I      2   1.56033E+05   1.88406E+05  HDI002D-14-13-26DBB 
 HD   I      2   1.52252E+05   1.83052E+05  HDI002D-14-13-34ADC 
 HD   I      2   1.55001E+05   1.82547E+05  HDI002D-14-13-35CAB 
 HD   I      2   1.70627E+05   2.06292E+05  HDI002D-14-14-08BAB 
 HD   I      2   1.82652E+05   2.04281E+05  HDI002D-14-14-10ACC1
 HD   I      2   1.86523E+05   1.97819E+05  HDI002D-14-14-14CAC 
 HD   I      2   1.74670E+05   1.98415E+05  HDI002D-14-14-16CBB1
 HD   I      2   1.69775E+05   1.93563E+05  HDI002D-14-14-20CBB 
 HD   I      2   1.90402E+05   1.85499E+05  HDI002D-14-14-35AAA 
 HD   I      2   2.21974E+05   2.07776E+05  HDI002D-14-15-02DDA1
 HD   I      2   2.00261E+05   2.00463E+05  HDI002D-14-15-18AAC 
 HD   I      2   2.01057E+05   1.85311E+05  HDI002D-14-15-32BBB 
 HD   I      2   6.25477E+04   1.52763E+05  HDI002D-15-10-35AAA 
 HD   I      3   7.41254E+04   1.74757E+05  HDI003D-15-11-05CCD 
 HD   I      2   9.44895E+04   1.72190E+05  HDI002D-15-11-11ADD 
 HD   I      3   9.44895E+04   1.72190E+05  HDI003D-15-11-11ADD 
 HD   I      1   1.56722E+05   1.78910E+05  HDI001D-15-13-02ACA1
 HD   I      1   1.54144E+05   1.71940E+05  HDI001D-15-13-11CBA 
 HD   I      1   1.51394E+05   1.58706E+05  HDI001D-15-13-27ABB1
 HD   I      3   1.85084E+05   1.76604E+05  HDI003D-15-14-03DAD 
 HD   I      2   1.64631E+05   1.71336E+05  HDI002D-15-14-07CBC 
 HD   I      3   1.64120E+05   1.59214E+05  HDI003D-15-14-19CCC 
 HD   I      3   1.64123E+05   1.50829E+05  HDI003D-15-14-31CBB1
 HD   I      2   1.95823E+05   1.79748E+05  HDI002D-15-15-06BBB 
 HD   I      2   2.24838E+05   1.54948E+05  HDI002D-15-15-25DBC2
 HD   I      2   3.63196E+04   1.29003E+05  HDI002D-16-09-24DAC 
 HD   I      2   7.41227E+04   1.37178E+05  HDI002D-16-11-08CCC 
 HD   I      3   1.52254E+05   1.20824E+05  HDI003D-16-13-34AAB2
 HD   I      2   1.54404E+05   1.47695E+05  HDI002D-16-13S02BBA2
 HD   I      1   1.65161E+05   1.37495E+05  HDI001D-16-14-07CCD 
 HD   I      2   1.64907E+05   1.26989E+05  HDI002D-16-14-19CCD 
 HD   I      2   1.73942E+05   1.30732E+05  HDI002D-16-14-20ADA 
 HD   I      2   1.71539E+05   1.19012E+05  HDI002D-16-14-32BDD2
 HD   I      2   1.99234E+05   1.37930E+05  HDI002D-16-15-18ABD 
 HD   I      3   2.41308E+05   1.38623E+05  HDI003D-16-16-09DCD2
 HD   I      2   1.60003E+05   1.13653E+05  HDI002D-17-13-01CAB 
 HD   I      1   1.58891E+05   8.63786E+04  HDI001D-17-13-36CBC2
 HD   I      2   1.71895E+05   1.00122E+05  HDI002D-17-14-17DCC 
 HD   I      2   1.63972E+05   9.43603E+04  HDI002D-17-14-30BBB 
 HD   I      3   2.20194E+05   1.13015E+05  HDI003D-17-15-02DCD 
 HD   I      2   1.61219E+05   7.99142E+04  HDI002D-18-13-01CDA 
 HD   I      2   1.59669E+05   7.08220E+04  HDI002D-18-13-13CBA 
 HD   I      2   1.58637E+05   6.21349E+04  HDI002D-18-13-26AAD 
 HD   I      1   1.54583E+05   5.80934E+04  HDI001D-18-13-26CCD 
 HD   I      1   1.58984E+05   5.56700E+04  HDI001D-18-13-36BCC 
 HD   I      1   1.45440E+05   4.50633E+04  HDI001D-19-13-09CAA 
 HD   I      2   1.38013E+05   2.95093E+04  HDI002D-19-13-29BCC 
 HD   I      2   1.48392E+05   2.59222E+05  HDI002D-12-13-22BBB 
 HD   I      3   2.21974E+05   2.07776E+05  HDI003D-14-15-02DDA1
 HD   I      1   1.74585E+05   1.96698E+05  HDI001D-14-14-16CCC1
 HD   I      2   1.74585E+05   1.96698E+05  HDI002D-14-14-16CCC2
 HD   I      3   1.74585E+05   1.96698E+05  HDI003D-14-14-16CCC3
 HD   I      1   2.06415E+05   1.66732E+05  HDI001D-15-15-16CBB1
 HD   I      2   2.06415E+05   1.66732E+05  HDI002D-15-15-16CBB2
 HD   I      3   2.06415E+05   1.66732E+05  HDI003D-15-15-16CBB3
 HD   I      1   2.00772E+05   1.45509E+05  HDI001D-16-15-05CBC1
 HD   I      2   2.00772E+05   1.45509E+05  HDI002D-16-15-05CBC2
 HD   I      3   2.00772E+05   1.45509E+05  HDI003D-16-15-05CBC3

 OBS2BAS7 -- HEAD OBSERVATIONS, VERSION 2.0, 2/28/2006
 INPUT READ FROM UNIT   8
 # Tucson Update 1940-2011 Head Observation File
 # HOB Package with observed heads 1940-2011

 NUMBER OF HEADS....................................: 8395
   NUMBER OF MULTILAYER HEADS.......................: 2560
   MAXIMUM NUMBER OF LAYERS FOR MULTILAYER HEADS....:    3
 HEAD OBSERVATIONS WILL BE SAVED ON UNIT............:   34
 SIMULATED EQUIVALENT HEAD AT DRY CELLS WILL BE:   -666.000    

 OBSERVED HEAD DATA -- TIME OFFSETS ARE MULTIPLIED BY:  1.00000    

                    REFER.
       OBSERVATION  STRESS    TIME
  OBS#    NAME      PERIOD   OFFSET    OBSERVATION
     1 3522-15-337      1    365.0       2965.    
 Observation within a steady-state time step has been moved to the end of the time step.
     2 3489-20-74       1    365.0       2968.    
 Observation within a steady-state time step has been moved to the end of the time step.
     3 3485-19-34       1    365.0       2966.    
 Observation within a steady-state time step has been moved to the end of the time step.
     4 3465-20-300      1    365.0       2968.    
 Observation within a steady-state time step has been moved to the end of the time step.
     5 3415-15-154      1    365.0       2955.    
 Observation within a steady-state time step has been moved to the end of the time step.
     6 3314-43-7        1    365.0       2830.    
 Observation within a steady-state time step has been moved to the end of the time step.
     7 3241-5-82        1    365.0       2709.    
 Observation within a steady-state time step has been moved to the end of the time step.
     8 3384-7-41        7    41.00       1626.    
     9 3384-12-10      12   10.000       1613.    
    10 3384-16-340     16    340.0       1572.    
    11 3384-21-335     21    335.0       1549.    
    12 3384-27-13      27    13.00       1531.    
    13 3384-32-5       32    5.000       1517.    
    14 3384-36-349     36    349.0       1499.    
    15 3400-55-321     55    321.0       1558.    
    16 3400-60-312     60    312.0       1568.    
    17 3400-65-363     65    363.0       1583.    
    18 3400-71-349     71    349.0       1600.    
    19 3401-55-321     55    321.0       1613.    
    20 3401-60-312     60    312.0       1621.    
    21 3401-65-363     65    363.0       1631.    
    22 3401-71-349     71    349.0       1650.    
    23 3397-11-313     11    313.0       1674.    
    24 3361-21-339     21    339.0       1555.    
    25 3361-32-5       32    5.000       1524.    
    26 3346-16-340     16    340.0       1573.    
    27 3346-21-339     21    339.0       1537.    
    28 3346-32-5       32    5.000       1495.    
    29 3346-37-349     37    349.0       1474.    
    30 3346-49-54      49    54.00       1506.    
    31 3346-60-319     60    319.0       1517.    
    32 3346-65-298     65    298.0       1529.    
    33 3346-71-13      71    13.00       1544.    
    34 3376-6-41        6    41.00       1665.    
    35 3376-12-46      12    46.00       1648.    
    36 3376-16-362     16    362.0       1635.    
    37 3376-21-336     21    336.0       1591.    
    38 3376-27-12      27    12.00       1561.    
    39 3376-38-1       38   1.0000       1527.    
    40 3327-56-26      56    26.00       1579.    
    41 3327-66-18      66    18.00       1601.    
    42 3306-1-32        1    32.00       1688.    
 Observation within a steady-state time step has been moved to the end of the time step.
    43 3299-38-41      38    41.00       1546.    
    44 3311-15-337     15    337.0       2982.    
    45 3313-32-7       32    7.000       1579.    
    46 3313-38-1       38   1.0000       1560.    
    47 3313-56-26      56    26.00       1601.    
    48 3313-66-18      66    18.00       1626.    
    49 3303-56-26      56    26.00       1600.    
    50 3303-66-18      66    18.00       1624.    
    51 3302-12-32      12    32.00       1680.    
    52 3302-56-26      56    26.00       1606.    
    53 3302-66-18      66    18.00       1633.    
    54 3320-2-305       2    305.0       1680.    
    55 3324-26-339     26    339.0       1550.    
    56 3312-16-335     16    335.0       1604.    
    57 3312-21-335     21    335.0       1576.    
    58 3312-32-1       32   1.0000       1537.    
    59 3312-36-51      36    51.00       1523.    
    60 3294-1-60        1    60.00       1692.    
 Observation within a steady-state time step has been moved to the end of the time step.
    61 3291-16-362     16    362.0       1650.    
    62 3288-12-32      12    32.00       1671.    
    63 3288-21-335     21    335.0       1622.    
    64 3288-32-7       32    7.000       1602.    
    65 3282-21-336     21    336.0       1628.    
    66 3282-32-7       32    7.000       1604.    
    67 3282-38-10      38   10.000       1584.    
    68 3285-5-179       5    179.0       1699.    
    69 3285-11-25      11    25.00       1690.    
    70 3285-16-341     16    341.0       1666.    
    71 3285-21-336     21    336.0       1639.    
    72 3279-12-39      12    39.00       1679.    
    73 3279-16-362     16    362.0       1650.    
    74 3279-21-341     21    341.0       1639.    
    75 3279-27-28      27    28.00       1624.    
    76 3281-21-336     21    336.0       1635.    
    77 3281-37-350     37    350.0       1573.    
    78 3268-21-274     21    274.0       1652.    
    79 3268-38-6       38    6.000       1576.    
    80 3259-16-348     16    348.0       1684.    
     MULTIPLE LAYERS AND PROPORTIONS :    1, 0.19       2, 0.69       3, 0.12
    81 3259-32-7       32    7.000       1619.    
     MULTIPLE LAYERS AND PROPORTIONS :    2, 0.69       3, 0.31
    82 3259-36-350     36    350.0       1606.    
     MULTIPLE LAYERS AND PROPORTIONS :    2, 0.88       3, 0.12
    83 3237-1-365       1    365.0       1723.    
 Observation within a steady-state time step has been moved to the end of the time step.
    84 3237-3-355       3    355.0       1721.    
    85 3237-12-59      12    59.00       1713.    
    86 3237-12-59      12    59.00       1713.    
    87 3234-6-284       6    284.0       1719.    
    88 3234-12-32      12    32.00       1710.    
    89 3234-16-348     16    348.0       1689.    
    90 3231-21-341     21    341.0       1661.    
     MULTIPLE LAYERS AND PROPORTIONS :    2, 0.28       3, 0.72
    91 3231-27-12      27    12.00       1642.    
     MULTIPLE LAYERS AND PROPORTIONS :    2, 0.28       3, 0.72
    92 3231-38-3       38    3.000       1595.    
     MULTIPLE LAYERS AND PROPORTIONS :    2, 0.28       3, 0.72
    93 3382-48-363     48    363.0       1604.    
    94 3383-48-363     48    363.0       1619.    
    95 3363-56-23      56    23.00       1632.    
    96 3363-66-18      66    18.00       1646.    
    97 3364-11-342     11    342.0       1694.    
     MULTIPLE LAYERS AND PROPORTIONS :    1, 0.15       2, 0.85
    98 3364-16-362     16    362.0       1671.    
     MULTIPLE LAYERS AND PROPORTIONS :    1, 0.15       2, 0.85
    99 3364-21-341     21    341.0       1646.    
     MULTIPLE LAYERS AND PROPORTIONS :    1, 0.15       2, 0.85
   100 3364-27-28      27    28.00       1639.    
   101 3364-32-4       32    4.000       1621.    
   102 3364-36-349     36    349.0       1617.    
   103 3364-43-19      43    19.00       1616.    
   104 3364-49-54      49    54.00       1622.    
   105 3364-56-25      56    25.00       1626.    
   106 3364-60-319     60    319.0       1628.    
   107 3364-65-298     65    298.0       1635.    
     MULTIPLE LAYERS AND PROPORTIONS :    1, 0.15       2, 0.85
   108 3364-71-13      71    13.00       1648.    
     MULTIPLE LAYERS AND PROPORTIONS :    1, 0.15       2, 0.85
   109 3364-71-365     71    365.0       1652.    
     MULTIPLE LAYERS AND PROPORTIONS :    1, 0.15       2, 0.85
   110 3370-56-25      56    25.00       1623.    
   111 3370-61-72      61    72.00       1628.    
   112 3370-66-18      66    18.00       1637.    
   113 3353-21-335     21    335.0       1659.    
   114 3353-27-12      27    12.00       1646.    
   115 3353-56-25      56    25.00       1627.    
   116 3353-66-18      66    18.00       1635.    
   117 3351-56-25      56    25.00       1628.    
   118 3351-61-72      61    72.00       1629.    
   119 3351-66-18      66    18.00       1639.    
   120 3310-56-23      56    23.00       1643.    
   121 3307-56-23      56    23.00       1644.    
   122 3307-61-73      61    73.00       1649.    
   123 3307-66-20      66    20.00       1676.    
   124 3292-56-25      56    25.00       1630.    
     MULTIPLE LAYERS AND PROPORTIONS :    2, 0.35       3, 0.65
   125 3292-61-73      61    73.00       1638.    
     MULTIPLE LAYERS AND PROPORTIONS :    2, 0.35       3, 0.65
   126 3292-66-19      66    19.00       1663.    
     MULTIPLE LAYERS AND PROPORTIONS :    2, 0.35       3, 0.65
   127 3278-11-296     11    296.0       1706.    
   128 3278-16-343     16    343.0       1693.    
   129 3278-21-340     21    340.0       1664.    
   130 3278-27-12      27    12.00       1658.    
   131 3278-32-4       32    4.000       1650.    
   132 3278-36-350     36    350.0       1648.    
   133 3278-43-19      43    19.00       1650.    
   134 3278-49-54      49    54.00       1656.    
   135 3278-56-25      56    25.00       1656.    
   136 3278-60-319     60    319.0       1660.    
   137 3278-65-301     65    301.0       1670.    
   138 3278-71-13      71    13.00       1684.    
   139 3278-71-365     71    365.0       1686.    
   140 3290-56-25      56    25.00       1638.    
     MULTIPLE LAYERS AND PROPORTIONS :    2, 0.84       3, 0.16
   141 3290-61-73      61    73.00       1647.    
     MULTIPLE LAYERS AND PROPORTIONS :    2, 0.84       3, 0.16
   142 3290-66-19      66    19.00       1671.    
     MULTIPLE LAYERS AND PROPORTIONS :    2, 0.84       3, 0.16
   143 3250-12-32      12    32.00       1737.    
   144 3250-16-363     16    363.0       1711.    
   145 3250-21-335     21    335.0       1688.    
   146 3250-32-7       32    7.000       1652.    
   147 3250-36-352     36    352.0       1632.    
   148 3308-56-25      56    25.00       1672.    
     MULTIPLE LAYERS AND PROPORTIONS :    2, 0.78       3, 0.22
   149 3308-61-73      61    73.00       1673.    
     MULTIPLE LAYERS AND PROPORTIONS :    2, 0.78       3, 0.22
   150 3308-66-20      66    20.00       1698.    
     MULTIPLE LAYERS AND PROPORTIONS :    2, 0.78       3, 0.22
   151 3249-16-363     16    363.0       1709.    
   152 3249-21-340     21    340.0       1688.    
   153 3249-36-352     36    352.0       1660.    
   154 3249-56-25      56    25.00       1688.    
   155 3249-61-73      61    73.00       1698.    
   156 3233-3-355       3    355.0       1744.    
   157 3233-6-341       6    341.0       1743.    
   158 3233-12-59      12    59.00       1737.    
   159 3233-16-311     16    311.0       1725.    
   160 3230-16-348     16    348.0       1722.    
     MULTIPLE LAYERS AND PROPORTIONS :    1, 0.45       2, 0.55
   161 3230-21-340     21    340.0       1705.    
     MULTIPLE LAYERS AND PROPORTIONS :    1, 0.45       2, 0.55
   162 3230-27-1       27   1.0000       1694.    
     MULTIPLE LAYERS AND PROPORTIONS :    1, 0.45       2, 0.55
   163 3230-32-7       32    7.000       1702.    
     MULTIPLE LAYERS AND PROPORTIONS :    1, 0.45       2, 0.55
   164 3230-36-352     36    352.0       1682.    
   165 3230-56-25      56    25.00       1711.    
   166 3230-61-72      61    72.00       1716.    
   167 3229-17-4       17    4.000       1729.    
     MULTIPLE LAYERS AND PROPORTIONS :    1, 0.89       2, 0.11
   168 3247-61-73      61    73.00       1711.    
   169 3247-66-20      66    20.00       1715.    
   170 3368-56-25      56    25.00       1668.    
   171 3333-12-10      12   10.000       1744.    
   172 3333-16-343     16    343.0       1741.    
   173 3333-32-85      32    85.00       1693.    
   174 3333-35-53      35    53.00       1685.    
   175 3332-49-54      49    54.00       1671.    
   176 3332-56-26      56    26.00       1674.    
   177 3332-60-319     60    319.0       1679.    
   178 3332-65-298     65    298.0       1687.    
   179 3332-71-13      71    13.00       1699.    
   180 3332-71-365     71    365.0       1701.    
   181 3330-56-25      56    25.00       1659.    
   182 3315-48-300     48    300.0       1659.    
   183 3315-55-321     55    321.0       1664.    
   184 3315-60-312     60    312.0       1666.    
   185 3315-65-363     65    363.0       1676.    
   186 3315-71-351     71    351.0       1691.    
   187 3316-48-300     48    300.0       1658.    
   188 3316-55-321     55    321.0       1663.    
   189 3316-60-312     60    312.0       1666.    
   190 3316-65-363     65    363.0       1677.    
   191 3316-71-351     71    351.0       1692.    
   192 3284-56-25      56    25.00       1689.    
   193 3275-38-12      38    12.00       1709.    
   194 3287-38-24      38    24.00       1676.    
   195 3265-48-364     48    300.0       1671.    
   196 3265-56-25      56    25.00       1676.    
     MULTIPLE LAYERS AND PROPORTIONS :    2, 0.47       3, 0.53
   197 3228-56-20      56    20.00       1682.    
     MULTIPLE LAYERS AND PROPORTIONS :    1, 0.16       2, 0.84
   198 3228-61-73      61    73.00       1697.    
     MULTIPLE LAYERS AND PROPORTIONS :    1, 0.16       2, 0.84
   199 3228-66-19      66    19.00       1727.    
     MULTIPLE LAYERS AND PROPORTIONS :    1, 0.16       2, 0.84
   200 3347-20-74      20    74.00       2968.    
   201 3347-26-157     37    33.00       2967.    
   202 3347-37-33      37    33.00       2963.    
   203 3347-43-82      43    82.00       2967.    
   204 3347-48-336     48    336.0       2971.    
   205 3347-56-23      56    23.00       2969.    
   206 3347-61-62      61    62.00       2971.    
   207 3347-65-299     65    299.0       2969.    
   208 3347-71-12      71    12.00       2966.    
   209 3347-71-365     71    365.0       2966.    
   210 3378-15-337     15    337.0       2965.    
   211 3378-26-127     26    112.0       2971.    
   212 3378-33-312     33    312.0       2954.    
   213 3378-43-82      43    82.00       2971.    
   214 3378-48-337     48    337.0       2976.    
   215 3378-56-23      56    23.00       2976.    
   216 3378-61-62      61    62.00       2976.    
   217 3378-66-18      66    18.00       2972.    
   218 3336-71-63      71    63.00       2981.    
   219 3343-19-34      19    34.00       2966.    
   220 3343-26-121     26    121.0       2966.    
   221 3343-33-311     33    311.0       2952.    
   222 3343-43-82      43    82.00       2975.    
   223 3343-48-336     48    336.0       2978.    
   224 3343-56-25      56    25.00       2977.    
   225 3343-61-62      61    62.00       2975.    
   226 3343-66-24      66    24.00       2971.    
   227 3343-71-63      71    63.00       2963.    
   228 3322-20-300     20    300.0       2968.    
   229 3322-26-127     26    127.0       2967.    
   230 3322-48-337     48    337.0       2973.    
   231 3322-56-25      56    25.00       2963.    
   232 3322-61-60      61    60.00       2964.    
   233 3317-43-85      43    85.00       2959.    
   234 3317-56-25      56    25.00       2964.    
   235 3317-61-60      61    60.00       2961.    
   236 3317-66-27      66    27.00       2959.    
   237 3317-71-64      71    64.00       2962.    
   238 3300-56-26      56    26.00       2995.    
   239 3289-56-26      56    26.00       3009.    
   240 3289-61-65      61    65.00       2998.    
   241 3276-56-26      56    26.00       3018.    
   242 3270-56-26      56    26.00       2964.    
   243 3272-15-154     15    154.0       2955.    
   244 3272-26-125     26    125.0       2957.    
   245 3272-37-36      37    36.00       2947.    
   246 3272-43-27      43    27.00       2962.    
   247 3272-48-336     48    336.0       2970.    
   248 3272-56-26      56    26.00       2966.    
   249 3272-61-60      61    60.00       2962.    
   250 3272-71-12      71    12.00       2947.    
   251 3266-56-26      56    26.00       2956.    
   252 3260-33-313     33    313.0       3027.    
   253 3260-48-334     48    334.0       3050.    
   254 3260-56-26      56    26.00       3044.    
   255 3222-38-6       38    6.000       1714.    
   256 3213-12-324     12    324.0       1725.    
   257 3213-16-335     16    335.0       1716.    
   258 3213-21-335     21    335.0       1699.    
   259 3213-32-7       32    7.000       1680.    
   260 3213-38-10      38   10.000       1660.    
   261 3213-56-19      56    19.00       1689.    
   262 3205-2-230       2    230.0       1730.    
     MULTIPLE LAYERS AND PROPORTIONS :    1, 0.18       2, 0.82
   263 3205-22-37      22    37.00       1683.    
     MULTIPLE LAYERS AND PROPORTIONS :    1, 0.18       2, 0.82
   264 3191-2-188       2    188.0       1745.    
   265 3178-17-4       17    4.000       1713.    
   266 3178-22-37      22    37.00       1688.    
   267 3178-32-85      32    85.00       1649.    
   268 3178-36-65      36    65.00       1610.    
   269 3178-42-349     42    349.0       1623.    
   270 3178-48-341     48    341.0       1643.    
   271 3178-56-23      56    23.00       1655.    
   272 3178-60-319     60    319.0       1671.    
   273 3177-17-4       17    4.000       1713.    
     MULTIPLE LAYERS AND PROPORTIONS :    1, 0.18       2, 0.82
   274 3176-11-297     11    297.0       1743.    
     MULTIPLE LAYERS AND PROPORTIONS :    1, 0.31       2, 0.69
   275 3176-16-342     16    342.0       1718.    
     MULTIPLE LAYERS AND PROPORTIONS :    1, 0.31       2, 0.69
   276 3176-21-342     21    342.0       1691.    
     MULTIPLE LAYERS AND PROPORTIONS :    1, 0.31       2, 0.69
   277 3176-32-7       32    7.000       1633.    
   278 3176-34-339     34    339.0       1628.    
   279 3174-21-335     21    335.0       1695.    
   280 3174-56-19      56    19.00       1680.    
   281 3174-61-60      61    60.00       1690.    
   282 3174-66-24      66    24.00       1723.    
   283 3188-2-335       2    335.0       1755.    
   284 3188-6-341       6    341.0       1754.    
   285 3188-10-350     10    350.0       1750.    
   286 3199-38-6       38    6.000       1636.    
     MULTIPLE LAYERS AND PROPORTIONS :    2, 0.82       3, 0.18
   287 3199-48-337     48    337.0       1674.    
     MULTIPLE LAYERS AND PROPORTIONS :    2, 0.82       3, 0.18
   288 3199-61-60      61    60.00       1705.    
     MULTIPLE LAYERS AND PROPORTIONS :    2, 0.82       3, 0.18
   289 3175-48-337     48    337.0       1664.    
   290 3175-56-19      56    19.00       1686.    
   291 3175-66-24      66    24.00       1729.    
   292 3196-56-19      56    19.00       1688.    
   293 3171-21-335     21    335.0       1716.    
   294 3171-26-313     26    313.0       1672.    
   295 3171-48-337     48    337.0       1698.    
   296 3173-48-337     48    337.0       1672.    
   297 3173-56-19      56    19.00       1692.    
   298 3173-61-60      61    60.00       1701.    
   299 3173-66-20      66    20.00       1730.    
   300 3172-56-19      56    19.00       1682.    
   301 3172-61-60      61    60.00       1691.    
   302 3172-66-24      66    24.00       1723.    
   303 3163-12-91      12    91.00       1748.    
   304 3163-21-335     21    335.0       1701.    
   305 3197-42-351     42    351.0       1684.    
     MULTIPLE LAYERS AND PROPORTIONS :    2, 0.43       3, 0.57
   306 3197-48-348     48    348.0       1700.    
     MULTIPLE LAYERS AND PROPORTIONS :    2, 0.43       3, 0.57
   307 3197-56-4       56    4.000       1699.    
     MULTIPLE LAYERS AND PROPORTIONS :    2, 0.43       3, 0.57
   308 3197-61-5       61    5.000       1719.    
     MULTIPLE LAYERS AND PROPORTIONS :    2, 0.43       3, 0.57
   309 3197-65-361     65    361.0       1745.    
     MULTIPLE LAYERS AND PROPORTIONS :    2, 0.43       3, 0.57
   310 3197-71-355     71    355.0       1748.    
     MULTIPLE LAYERS AND PROPORTIONS :    2, 0.43       3, 0.57
   311 3170-16-348     16    348.0       1732.    
     MULTIPLE LAYERS AND PROPORTIONS :    1, 0.13       2, 0.87
   312 3170-21-342     21    342.0       1703.    
   313 3170-38-6       38    6.000       1681.    
   314 3170-42-351     42    351.0       1737.    
   315 3170-48-348     48    348.0       1694.    
   316 3170-55-354     55    354.0       1703.    
   317 3170-61-5       61    5.000       1725.    
   318 3170-65-361     65    361.0       1751.    
   319 3170-71-355     71    355.0       1754.    
   320 3139-21-343     21    343.0       1698.    
   321 3139-71-355     71    355.0       1747.    
   322 3143-17-5       17    5.000       1732.    
   323 3143-22-37      22    37.00       1708.    
   324 3143-27-31      27    31.00       1695.    
   325 3143-55-354     55    354.0       1694.    
   326 3143-61-5       61    5.000       1720.    
   327 3143-65-361     65    361.0       1757.    
   328 3143-71-355     71    355.0       1760.    
   329 3166-1-1         1   1.0000       1748.    
 Observation within a steady-state time step has been moved to the end of the time step.
     MULTIPLE LAYERS AND PROPORTIONS :    2, 0.54       3, 0.46
   330 3166-11-335     11    335.0       1738.    
     MULTIPLE LAYERS AND PROPORTIONS :    2, 0.54       3, 0.46
   331 3166-21-335     21    335.0       1680.    
     MULTIPLE LAYERS AND PROPORTIONS :    2, 0.54       3, 0.46
   332 3100-16-338     16    338.0       1730.    
   333 3100-21-335     21    335.0       1703.    
     MULTIPLE LAYERS AND PROPORTIONS :    2, 0.76       3, 0.24
   334 3100-43-60      43    60.00       1625.    
   335 3100-55-354     55    354.0       1652.    
   336 3100-61-5       61    5.000       1659.    
     MULTIPLE LAYERS AND PROPORTIONS :    2, 0.76       3, 0.24
   337 3100-66-20      66    20.00       1692.    
     MULTIPLE LAYERS AND PROPORTIONS :    2, 0.76       3, 0.24
   338 3100-71-355     71    355.0       1709.    
     MULTIPLE LAYERS AND PROPORTIONS :    2, 0.76       3, 0.24
   339 2939-42-351     42    351.0       1635.    
   340 2939-61-5       61    5.000       1669.    
   341 2939-70-352     70    352.0       1725.    
   342 2939-71-355     71    355.0       1727.    
   343 3099-21-335     21    335.0       1697.    
     MULTIPLE LAYERS AND PROPORTIONS :    2, 0.38       3, 0.62
   344 3099-61-5       61    5.000       1665.    
     MULTIPLE LAYERS AND PROPORTIONS :    2, 0.38       3, 0.62
   345 3099-66-20      66    20.00       1698.    
     MULTIPLE LAYERS AND PROPORTIONS :    2, 0.38       3, 0.62
   346 3099-71-355     71    355.0       1723.    
     MULTIPLE LAYERS AND PROPORTIONS :    2, 0.38       3, 0.62
   347 3113-1-59        1    59.00       1773.    
 Observation within a steady-state time step has been moved to the end of the time step.
   348 3113-6-341       6    341.0       1768.    
   349 3113-12-362     12    362.0       1752.    
   350 3113-22-37      22    37.00       1703.    
   351 3113-27-31      27    31.00       1697.    
   352 3113-37-341     37    341.0       1653.    
   353 3113-42-349     42    349.0       1684.    
   354 3113-48-341     48    341.0       1664.    
   355 3113-55-354     55    354.0       1694.    
   356 3113-60-319     60    319.0       1716.    
   357 3113-65-298     65    298.0       1744.    
   358 3113-71-355     71    355.0       1757.    
   359 3097-12-170     12    170.0       1744.    
   360 3097-17-5       17    5.000       1723.    
   361 3097-42-351     42    351.0       1664.    
   362 3097-48-348     48    348.0       1679.    
   363 3097-55-354     55    354.0       1696.    
   364 3097-61-5       61    5.000       1718.    
   365 3097-65-361     65    361.0       1750.    
   366 3097-71-355     71    355.0       1760.    
   367 3095-42-351     42    351.0       1666.    
   368 3095-48-348     48    348.0       1682.    
   369 3095-55-354     55    354.0       1698.    
   370 3095-61-5       61    5.000       1720.    
   371 3095-65-361     65    361.0       1752.    
   372 3095-71-355     71    355.0       1761.    
   373 3096-8-283       8    283.0       1773.    
     MULTIPLE LAYERS AND PROPORTIONS :    1, 0.20       2, 0.80
   374 3096-17-5       17    5.000       1736.    
     MULTIPLE LAYERS AND PROPORTIONS :    1, 0.20       2, 0.80
   375 3096-21-335     21    335.0       1708.    
   376 3135-8-282       8    282.0       1775.    
     MULTIPLE LAYERS AND PROPORTIONS :    1, 0.11       2, 0.89
   377 3135-11-355     11    355.0       1766.    
     MULTIPLE LAYERS AND PROPORTIONS :    1, 0.11       2, 0.89
   378 3135-16-349     16    349.0       1739.    
     MULTIPLE LAYERS AND PROPORTIONS :    1, 0.11       2, 0.89
   379 3135-21-312     21    312.0       1708.    
   380 3135-26-292     26    292.0       1680.    
   381 3135-38-5       38    5.000       1641.    
   382 3135-48-337     48    337.0       1678.    
   383 3135-56-19      56    19.00       1700.    
   384 3135-61-60      61    60.00       1717.    
   385 3121-55-354     55    354.0       1713.    
   386 3121-61-5       61    5.000       1724.    
   387 3121-66-20      66    20.00       1760.    
   388 3121-71-365     71    365.0       1772.    
   389 3059-10-57      10    57.00       1779.    
   390 3059-17-5       17    5.000       1744.    
   391 3059-27-31      27    31.00       1693.    
   392 3059-37-33      37    33.00       1717.    
   393 3059-42-349     42    349.0       1681.    
   394 3059-48-342     48    342.0       1700.    
   395 3059-56-20      56    20.00       1720.    
   396 3059-60-319     60    319.0       1742.    
   397 3059-65-301     65    301.0       1777.    
   398 3059-71-365     71    365.0       1787.    
   399 3078-21-335     21    335.0       1709.    
   400 3080-11-297     11    297.0       1762.    
     MULTIPLE LAYERS AND PROPORTIONS :    1, 0.12       2, 0.88
   401 3075-56-20      56    20.00       1716.    
   402 3089-2-339       2    339.0       1774.    
   403 3089-6-341       6    341.0       1772.    
   404 3089-12-362     12    362.0       1763.    
   405 3089-16-313     16    313.0       1745.    
   406 3089-42-351     42    351.0       1693.    
   407 3089-65-361     65    361.0       1743.    
   408 3089-71-355     71    355.0       1755.    
   409 3053-11-297     11    297.0       1767.    
   410 3053-16-349     16    349.0       1741.    
   411 3053-22-37      22    37.00       1710.    
   412 3053-32-85      32    85.00       1668.    
   413 3053-42-351     42    351.0       1660.    
   414 3053-48-348     48    348.0       1676.    
   415 3053-55-353     55    353.0       1689.    
   416 3053-61-5       61    5.000       1706.    
   417 3053-65-361     65    361.0       1735.    
   418 3053-71-355     71    355.0       1752.    
   419 3050-55-353     55    353.0       1689.    
   420 3050-61-5       61    5.000       1706.    
   421 3050-65-361     65    361.0       1735.    
   422 3050-71-355     71    355.0       1752.    
   423 3076-37-33      37    33.00       1618.    
   424 3076-42-349     42    349.0       1656.    
   425 3076-48-342     48    342.0       1676.    
   426 3076-56-23      56    23.00       1695.    
   427 3076-61-60      61    60.00       1701.    
   428 3076-66-24      66    24.00       1742.    
   429 3077-55-354     55    354.0       1659.    
   430 3077-61-5       61    5.000       1665.    
   431 3077-66-20      66    20.00       1690.    
   432 3077-71-355     71    355.0       1718.    
   433 3065-48-348     48    348.0       1663.    
     MULTIPLE LAYERS AND PROPORTIONS :    2, 0.27       3, 0.73
   434 3021-1-107       1    107.0       1784.    
 Observation within a steady-state time step has been moved to the end of the time step.
   435 3021-7-3         7    3.000       1782.    
   436 3020-7-3         7    3.000       1781.    
   437 3020-12-59      12    59.00       1775.    
   438 3020-16-314     16    314.0       1755.    
   439 3020-22-37      22    37.00       1731.    
   440 3020-27-31      27    31.00       1697.    
   441 2989-12-59      12    59.00       1780.    
   442 2995-16-313     16    313.0       1748.    
   443 2995-22-37      22    37.00       1734.    
   444 2995-27-31      27    31.00       1719.    
   445 2995-32-85      32    85.00       1723.    
   446 3201-48-300     48    300.0       1676.    
   447 3201-55-321     55    321.0       1685.    
   448 3201-60-312     60    312.0       1692.    
   449 3201-65-363     65    363.0       1706.    
   450 3201-71-10      71   10.000       1726.    
   451 3202-48-300     48    300.0       1678.    
   452 3202-55-321     55    321.0       1687.    
   453 3202-60-312     60    312.0       1696.    
   454 3202-65-363     65    363.0       1720.    
   455 3202-71-10      71   10.000       1745.    
   456 3200-21-335     21    335.0       1763.    
   457 3200-32-6       32    6.000       1728.    
   458 3200-36-351     36    351.0       1712.    
   459 3200-49-54      49    54.00       1695.    
   460 3200-56-24      56    24.00       1699.    
   461 3200-60-319     60    319.0       1706.    
   462 3200-65-298     65    298.0       1718.    
   463 3200-71-365     71    365.0       1736.    
   464 3154-1-337       1    337.0       1791.    
 Observation within a steady-state time step has been moved to the end of the time step.
     MULTIPLE LAYERS AND PROPORTIONS :    1, 0.12       2, 0.88
   465 3154-6-286       6    286.0       1782.    
     MULTIPLE LAYERS AND PROPORTIONS :    1, 0.12       2, 0.88
   466 3154-11-298     11    298.0       1778.    
     MULTIPLE LAYERS AND PROPORTIONS :    1, 0.12       2, 0.88
   467 3154-16-358     16    358.0       1742.    
     MULTIPLE LAYERS AND PROPORTIONS :    1, 0.12       2, 0.88
   468 3154-21-343     21    343.0       1712.    
   469 3154-32-85      32    85.00       1660.    
   470 3154-37-33      37    33.00       1649.    
   471 3154-42-349     42    349.0       1651.    
   472 3150-48-337     48    337.0       1681.    
   473 3150-56-23      56    23.00       1704.    
   474 3150-60-319     60    319.0       1720.    
   475 3150-65-298     65    298.0       1752.    
   476 3150-71-11      71    11.00       1775.    
   477 3150-71-365     71    365.0       1776.    
   478 3158-12-85      12    85.00       1766.    
   479 3158-16-342     16    342.0       1740.    
   480 3158-21-346     21    346.0       1712.    
   481 3158-56-25      56    25.00       1700.    
   482 3158-61-55      61    55.00       1720.    
   483 3158-66-19      66    19.00       1753.    
   484 3179-8-1         8   1.0000       1777.    
     MULTIPLE LAYERS AND PROPORTIONS :    1, 0.12       2, 0.88
   485 3151-12-33      12    33.00       1773.    
   486 3151-16-342     16    342.0       1740.    
   487 3151-21-346     21    346.0       1717.    
   488 3151-56-23      56    23.00       1705.    
   489 3151-61-55      61    55.00       1725.    
   490 3151-66-18      66    18.00       1758.    
   491 3167-34-152     34    152.0       1703.    
   492 3103-38-3       38    3.000       1652.    
   493 3101-66-24      66    24.00       1760.    
     MULTIPLE LAYERS AND PROPORTIONS :    2, 0.76       3, 0.24
   494 3105-8-1         8   1.0000       1789.    
     MULTIPLE LAYERS AND PROPORTIONS :    1, 0.19       2, 0.81
   495 3105-56-23      56    23.00       1710.    
   496 3105-61-55      61    55.00       1731.    
   497 3105-66-18      66    18.00       1767.    
   498 3142-12-1       12   1.0000       1778.    
     MULTIPLE LAYERS AND PROPORTIONS :    1, 0.43       2, 0.57
   499 3142-16-342     16    342.0       1744.    
     MULTIPLE LAYERS AND PROPORTIONS :    1, 0.43       2, 0.57
   500 3142-56-24      56    24.00       1707.    
   501 3142-61-55      61    55.00       1726.    
   502 3142-66-19      66    19.00       1759.    
   503 3138-21-346     21    346.0       1718.    
   504 3138-56-24      56    24.00       1708.    
   505 3138-61-55      61    55.00       1727.    
   506 3138-66-19      66    19.00       1760.    
   507 3119-48-337     48    337.0       1687.    
   508 3119-56-23      56    23.00       1712.    
   509 3119-61-60      61    60.00       1732.    
   510 3119-66-18      66    18.00       1768.    
   511 3130-2-305       2    305.0       1828.    
   512 3108-8-32        8    32.00       1790.    
     MULTIPLE LAYERS AND PROPORTIONS :    1, 0.45       2, 0.55
   513 3104-56-26      56    26.00       1723.    
   514 3104-61-55      61    55.00       1744.    
   515 3104-66-19      66    19.00       1777.    
   516 3102-56-26      56    26.00       1724.    
     MULTIPLE LAYERS AND PROPORTIONS :    2, 0.93       3, 0.07
   517 3102-61-55      61    55.00       1744.    
     MULTIPLE LAYERS AND PROPORTIONS :    2, 0.93       3, 0.07
   518 3102-66-19      66    19.00       1776.    
     MULTIPLE LAYERS AND PROPORTIONS :    2, 0.93       3, 0.07
   519 3140-48-300     48    300.0       1690.    
   520 3141-48-300     48    300.0       1693.    
   521 3061-66-19      66    19.00       1799.    
     MULTIPLE LAYERS AND PROPORTIONS :    2, 0.66       3, 0.34
   522 3085-1-337       1    337.0       1814.    
 Observation within a steady-state time step has been moved to the end of the time step.
     MULTIPLE LAYERS AND PROPORTIONS :    1, 0.27       2, 0.57       3, 0.16
   523 3085-6-286       6    286.0       1805.    
     MULTIPLE LAYERS AND PROPORTIONS :    1, 0.27       2, 0.57       3, 0.16
   524 3085-11-361     11    361.0       1794.    
     MULTIPLE LAYERS AND PROPORTIONS :    1, 0.27       2, 0.57       3, 0.16
   525 3085-16-350     16    350.0       1764.    
     MULTIPLE LAYERS AND PROPORTIONS :    1, 0.27       2, 0.57       3, 0.16
   526 3085-21-346     21    346.0       1739.    
     MULTIPLE LAYERS AND PROPORTIONS :    2, 0.84       3, 0.16
   527 3064-56-25      56    25.00       1746.    
   528 3083-56-23      56    23.00       1725.    
     MULTIPLE LAYERS AND PROPORTIONS :    2, 0.60       3, 0.40
   529 3083-61-55      61    55.00       1747.    
     MULTIPLE LAYERS AND PROPORTIONS :    2, 0.60       3, 0.40
   530 3083-66-18      66    18.00       1785.    
     MULTIPLE LAYERS AND PROPORTIONS :    2, 0.60       3, 0.40
   531 3084-10-60      10    60.00       1787.    
     MULTIPLE LAYERS AND PROPORTIONS :    1, 0.15       2, 0.85
   532 3084-48-341     48    341.0       1690.    
   533 3084-56-23      56    23.00       1716.    
   534 3084-61-55      61    55.00       1737.    
   535 3084-66-18      66    18.00       1775.    
   536 3081-48-341     48    341.0       1690.    
   537 3081-56-23      56    23.00       1714.    
   538 3081-61-55      61    55.00       1736.    
   539 3081-66-18      66    18.00       1774.    
   540 3079-1-365       1    365.0       1791.    
 Observation within a steady-state time step has been moved to the end of the time step.
   541 3058-48-337     48    337.0       1697.    
   542 3058-56-23      56    23.00       1722.    
   543 3058-61-55      61    55.00       1745.    
   544 3058-66-18      66    18.00       1782.    
   545 3086-12-247     12    247.0       1778.    
     MULTIPLE LAYERS AND PROPORTIONS :    1, 0.43       2, 0.57
   546 3107-1-365       1    365.0       1784.    
 Observation within a steady-state time step has been moved to the end of the time step.
   547 3107-11-334     11    334.0       1774.    
   548 3040-10-32      10    32.00       1777.    
   549 3017-71-5       71    5.000       1785.    
   550 3017-71-365     71    365.0       1787.    
   551 3015-55-354     55    354.0       1715.    
   552 3015-71-5       71    5.000       1790.    
   553 3015-71-365     71    365.0       1792.    
   554 3054-10-32      10    32.00       1780.    
   555 3046-12-247     12    247.0       1759.    
   556 3046-16-350     16    350.0       1748.    
   557 3046-21-343     21    343.0       1714.    
   558 3046-32-8       32    8.000       1684.    
   559 3046-36-87      36    87.00       1671.    
   560 3036-11-18      11    18.00       1788.    
     MULTIPLE LAYERS AND PROPORTIONS :    1, 0.22       2, 0.78
   561 3036-16-350     16    350.0       1755.    
     MULTIPLE LAYERS AND PROPORTIONS :    1, 0.22       2, 0.78
   562 3036-21-335     21    335.0       1722.    
     MULTIPLE LAYERS AND PROPORTIONS :    1, 0.22       2, 0.78
   563 3030-12-247     12    247.0       1770.    
     MULTIPLE LAYERS AND PROPORTIONS :    1, 0.19       2, 0.81
   564 3030-16-350     16    350.0       1757.    
     MULTIPLE LAYERS AND PROPORTIONS :    1, 0.19       2, 0.81
   565 3030-21-346     21    346.0       1725.    
     MULTIPLE LAYERS AND PROPORTIONS :    1, 0.19       2, 0.81
   566 3038-1-337       1    337.0       1816.    
 Observation within a steady-state time step has been moved to the end of the time step.
     MULTIPLE LAYERS AND PROPORTIONS :    1, 0.19       2, 0.77       3, 0.04
   567 3038-6-286       6    286.0       1808.    
     MULTIPLE LAYERS AND PROPORTIONS :    1, 0.19       2, 0.77       3, 0.04
   568 3038-11-338     11    338.0       1796.    
     MULTIPLE LAYERS AND PROPORTIONS :    1, 0.19       2, 0.77       3, 0.04
   569 3038-16-350     16    350.0       1765.    
     MULTIPLE LAYERS AND PROPORTIONS :    1, 0.19       2, 0.77       3, 0.04
   570 3038-21-312     21    312.0       1732.    
     MULTIPLE LAYERS AND PROPORTIONS :    1, 0.19       2, 0.77       3, 0.04
   571 3038-42-349     42    349.0       1678.    
     MULTIPLE LAYERS AND PROPORTIONS :    1, 0.19       2, 0.77       3, 0.04
   572 3035-48-337     48    337.0       1709.    
     MULTIPLE LAYERS AND PROPORTIONS :    2, 0.33       3, 0.67
   573 3035-56-23      56    23.00       1737.    
     MULTIPLE LAYERS AND PROPORTIONS :    2, 0.33       3, 0.67
   574 3035-60-319     60    319.0       1755.    
     MULTIPLE LAYERS AND PROPORTIONS :    2, 0.33       3, 0.67
   575 3035-66-18      66    18.00       1790.    
     MULTIPLE LAYERS AND PROPORTIONS :    2, 0.33       3, 0.67
   576 3035-71-11      71    11.00       1802.    
     MULTIPLE LAYERS AND PROPORTIONS :    2, 0.33       3, 0.67
   577 3035-71-365     71    365.0       1804.    
     MULTIPLE LAYERS AND PROPORTIONS :    2, 0.33       3, 0.67
   578 3007-12-76      12    76.00       1799.    
     MULTIPLE LAYERS AND PROPORTIONS :    1, 0.16       2, 0.76       3, 0.08
   579 3007-48-337     48    337.0       1714.    
     MULTIPLE LAYERS AND PROPORTIONS :    2, 0.93       3, 0.07
   580 3007-56-23      56    23.00       1743.    
     MULTIPLE LAYERS AND PROPORTIONS :    2, 0.93       3, 0.07
   581 3007-61-55      61    55.00       1764.    
   582 3007-66-18      66    18.00       1797.    
   583 3032-10-32      10    32.00       1837.    
     MULTIPLE LAYERS AND PROPORTIONS :    1, 0.10       2, 0.36       3, 0.54
   584 3032-48-337     48    337.0       1721.    
     MULTIPLE LAYERS AND PROPORTIONS :    1, 0.10       2, 0.36       3, 0.54
   585 3032-56-23      56    23.00       1749.    
     MULTIPLE LAYERS AND PROPORTIONS :    1, 0.10       2, 0.36       3, 0.54
   586 3032-61-55      61    55.00       1769.    
     MULTIPLE LAYERS AND PROPORTIONS :    1, 0.10       2, 0.36       3, 0.54
   587 3032-66-27      66    27.00       1792.    
     MULTIPLE LAYERS AND PROPORTIONS :    1, 0.10       2, 0.36       3, 0.54
   588 3006-56-23      56    23.00       1745.    
   589 3006-61-55      61    55.00       1767.    
   590 3006-66-18      66    18.00       1801.    
   591 3005-10-60      10    60.00       1836.    
   592 3005-48-337     48    337.0       1770.    
   593 3005-56-23      56    23.00       1795.    
   594 3005-61-55      61    55.00       1805.    
   595 3005-66-18      66    18.00       1812.    
   596 3002-56-23      56    23.00       1794.    
   597 3002-61-55      61    55.00       1805.    
   598 3002-66-19      66    19.00       1810.    
   599 3182-48-337     48    337.0       1674.    
   600 3182-56-19      56    19.00       1692.    
   601 3182-61-60      61    60.00       1708.    
   602 3182-66-27      66    27.00       1739.    
   603 3155-8-1         8   1.0000       1775.    
   604 3155-48-337     48    337.0       1676.    
   605 3155-56-19      56    19.00       1717.    
   606 3155-66-24      66    24.00       1748.    
   607 2695-43-60      43    60.00       1677.    
   608 2695-55-354     55    354.0       1712.    
   609 2695-61-7       61    7.000       1726.    
   610 2695-65-361     65    361.0       1770.    
   611 2695-71-5       71    5.000       1782.    
   612 2695-71-365     71    365.0       1784.    
   613 3037-48-364     48    364.0       1774.    
   614 3009-56-25      56    25.00       1908.    
   615 3009-61-55      61    55.00       1906.    
   616 3001-56-25      56    25.00       1910.    
   617 3001-61-55      61    55.00       1908.    
   618 3004-17-1       17   1.0000       2018.    
   619 3004-22-1       22   1.0000       2015.    
   620 3004-27-32      27    32.00       2001.    
   621 3004-37-36      37    36.00       2005.    
   622 3004-66-24      66    24.00       2001.    
   623 3004-71-57      71    57.00       1994.    
   624 3010-48-334     48    334.0       2113.    
   625 3010-56-27      56    27.00       2109.    
   626 3039-42-364     42    364.0       2228.    
   627 3039-48-335     48    335.0       2245.    
   628 3039-56-25      56    25.00       2227.    
   629 3019-31-297     31    297.0       2244.    
   630 2997-36-32      36    32.00       2229.    
   631 2997-43-41      43    41.00       2230.    
   632 2997-48-334     48    334.0       2229.    
   633 3012-31-339     31    339.0       2316.    
   634 3016-8-222       8    222.0       2284.    
   635 3016-11-53      11    53.00       2300.    
   636 3014-42-365     42    365.0       2297.    
   637 3014-48-334     48    334.0       2299.    
   638 3014-56-24      56    24.00       2299.    
   639 3014-61-59      61    59.00       2298.    
   640 3014-66-25      66    25.00       2291.    
   641 3014-71-54      71    54.00       2278.    
   642 3013-43-6       43    6.000       2316.    
   643 3013-48-335     48    335.0       2319.    
   644 3013-56-26      56    26.00       2319.    
   645 3013-66-28      66    28.00       2310.    
   646 3041-66-33      66    33.00       2468.    
   647 3041-71-61      71    61.00       2459.    
   648 3055-11-56      11    56.00       2467.    
   649 3055-43-6       43    6.000       2457.    
   650 3055-48-335     48    335.0       2469.    
   651 3055-56-19      56    19.00       2469.    
   652 3251-48-334     48    334.0       3019.    
   653 3246-56-26      56    26.00       2986.    
   654 3248-16-116     16    116.0       2955.    
   655 3248-21-116     21    116.0       2975.    
   656 3248-26-125     26    125.0       2959.    
   657 3248-31-111     31    111.0       2961.    
   658 3248-37-36      37    36.00       2957.    
   659 3248-43-81      43    81.00       2972.    
   660 3248-48-334     48    334.0       2988.    
   661 3248-56-26      56    26.00       2987.    
   662 3248-71-61      71    61.00       2965.    
   663 3242-56-26      56    26.00       2985.    
     MULTIPLE LAYERS AND PROPORTIONS :    2, 0.82       3, 0.18
   664 3241-61-61      61    61.00       2998.    
   665 3241-66-18      66    18.00       2981.    
   666 3241-71-61      71    61.00       3005.    
   667 3235-71-64      71    64.00       3012.    
   668 3221-66-33      66    33.00       2925.    
   669 3262-42-335     42    335.0       2939.    
   670 3262-49-8       49    8.000       2944.    
   671 3262-55-342     55    342.0       2943.    
   672 3262-61-35      61    35.00       2939.    
   673 3262-66-33      66    33.00       2931.    
   674 3262-71-323     71    323.0       2925.    
   675 3256-27-125     27    125.0       2931.    
     MULTIPLE LAYERS AND PROPORTIONS :    2, 0.47       3, 0.53
   676 3256-37-36      37    36.00       2916.    
     MULTIPLE LAYERS AND PROPORTIONS :    2, 0.47       3, 0.53
   677 3256-48-356     48    356.0       2938.    
     MULTIPLE LAYERS AND PROPORTIONS :    2, 0.47       3, 0.53
   678 3256-55-342     55    342.0       2934.    
     MULTIPLE LAYERS AND PROPORTIONS :    2, 0.47       3, 0.53
   679 3256-66-33      66    33.00       2926.    
     MULTIPLE LAYERS AND PROPORTIONS :    2, 0.47       3, 0.53
   680 3256-71-323     71    323.0       2917.    
     MULTIPLE LAYERS AND PROPORTIONS :    2, 0.47       3, 0.53
   681 3252-43-81      43    81.00       2932.    
   682 3252-48-336     48    336.0       2934.    
   683 3252-56-27      56    27.00       2930.    
   684 3252-60-323     60    323.0       2929.    
   685 3252-65-299     65    299.0       2923.    
   686 3252-71-365     71    365.0       2915.    
   687 3253-55-342     55    342.0       2930.    
   688 3253-60-335     60    335.0       2927.    
   689 3253-66-34      66    34.00       2925.    
   690 3253-71-323     71    323.0       2917.    
   691 3263-16-299     16    299.0       2905.    
     MULTIPLE LAYERS AND PROPORTIONS :    2, 0.70       3, 0.30
   692 3263-26-127     26    127.0       2904.    
     MULTIPLE LAYERS AND PROPORTIONS :    2, 0.70       3, 0.30
   693 3263-43-60      43    60.00       2902.    
     MULTIPLE LAYERS AND PROPORTIONS :    2, 0.70       3, 0.30
   694 3263-48-356     48    356.0       2911.    
     MULTIPLE LAYERS AND PROPORTIONS :    2, 0.70       3, 0.30
   695 3263-56-24      56    24.00       2900.    
     MULTIPLE LAYERS AND PROPORTIONS :    2, 0.70       3, 0.30
   696 3263-66-33      66    33.00       2901.    
     MULTIPLE LAYERS AND PROPORTIONS :    2, 0.70       3, 0.30
   697 3263-71-365     71    365.0       2895.    
     MULTIPLE LAYERS AND PROPORTIONS :    2, 0.70       3, 0.30
   698 3224-56-27      56    27.00       2930.    
   699 3209-33-314     33    314.0       2882.    
   700 3210-43-81      43    81.00       2884.    
     MULTIPLE LAYERS AND PROPORTIONS :    2, 0.11       3, 0.89
   701 3210-48-336     48    336.0       2887.    
     MULTIPLE LAYERS AND PROPORTIONS :    2, 0.11       3, 0.89
   702 3210-56-26      56    26.00       2894.    
     MULTIPLE LAYERS AND PROPORTIONS :    2, 0.11       3, 0.89
   703 3195-33-32      33    32.00       2815.    
     MULTIPLE LAYERS AND PROPORTIONS :    2, 0.29       3, 0.71
   704 3180-34-152     34    152.0       2820.    
     MULTIPLE LAYERS AND PROPORTIONS :    2, 0.08       3, 0.92
   705 3184-66-28      66    28.00       2857.    
   706 3184-71-62      71    62.00       2852.    
   707 3186-66-28      66    28.00       2856.    
   708 3186-71-60      71    60.00       2852.    
   709 3183-66-31      66    31.00       2872.    
   710 3207-43-7       43    7.000       2948.    
   711 3207-48-334     48    334.0       2964.    
   712 3207-56-26      56    26.00       2976.    
   713 3190-43-7       43    7.000       2890.    
   714 3190-48-336     48    336.0       2901.    
   715 3190-56-25      56    25.00       2904.    
   716 3194-71-62      71    62.00       2908.    
   717 3192-66-34      66    34.00       2931.    
   718 3192-71-60      71    60.00       2929.    
   719 3187-43-7       43    7.000       2909.    
     MULTIPLE LAYERS AND PROPORTIONS :    2, 0.48       3, 0.52
   720 3187-48-334     48    334.0       2917.    
     MULTIPLE LAYERS AND PROPORTIONS :    2, 0.48       3, 0.52
   721 3203-71-62      71    62.00       2945.    
   722 3165-71-62      71    62.00       2841.    
   723 3148-43-7       43    7.000       2842.    
     MULTIPLE LAYERS AND PROPORTIONS :    2, 0.20       3, 0.80
   724 3157-71-62      71    62.00       2841.    
   725 3152-71-62      71    62.00       2846.    
   726 3169-43-8       43    8.000       2834.    
   727 3169-48-336     48    336.0       2821.    
   728 3169-66-34      66    34.00       2822.    
   729 3169-71-61      71    61.00       2805.    
   730 3168-43-7       43    7.000       2830.    
     MULTIPLE LAYERS AND PROPORTIONS :    2, 0.70       3, 0.30
   731 3168-56-26      56    26.00       2830.    
     MULTIPLE LAYERS AND PROPORTIONS :    2, 0.70       3, 0.30
   732 3168-66-34      66    34.00       2829.    
     MULTIPLE LAYERS AND PROPORTIONS :    2, 0.70       3, 0.30
   733 3156-27-289     27    289.0       2792.    
     MULTIPLE LAYERS AND PROPORTIONS :    2, 0.40       3, 0.60
   734 3144-43-7       43    7.000       2755.    
     MULTIPLE LAYERS AND PROPORTIONS :    2, 0.26       3, 0.74
   735 3144-56-25      56    25.00       2765.    
     MULTIPLE LAYERS AND PROPORTIONS :    2, 0.26       3, 0.74
   736 3144-66-34      66    34.00       2744.    
     MULTIPLE LAYERS AND PROPORTIONS :    2, 0.26       3, 0.74
   737 3144-71-60      71    60.00       2734.    
     MULTIPLE LAYERS AND PROPORTIONS :    2, 0.26       3, 0.74
   738 3110-43-5       43    5.000       2722.    
   739 3110-48-335     48    335.0       2730.    
   740 3136-43-7       43    7.000       2851.    
     MULTIPLE LAYERS AND PROPORTIONS :    2, 0.27       3, 0.73
   741 3136-48-334     48    334.0       2861.    
     MULTIPLE LAYERS AND PROPORTIONS :    2, 0.27       3, 0.73
   742 3136-56-26      56    26.00       2868.    
     MULTIPLE LAYERS AND PROPORTIONS :    2, 0.27       3, 0.73
   743 3136-66-35      66    35.00       2846.    
     MULTIPLE LAYERS AND PROPORTIONS :    2, 0.27       3, 0.73
   744 3136-71-61      71    61.00       2827.    
     MULTIPLE LAYERS AND PROPORTIONS :    2, 0.27       3, 0.73
   745 3093-5-82        5    82.00       2709.    
   746 3093-6-97        6    97.00       2709.    
   747 3093-16-133     16    133.0       2692.    
   748 3093-26-124     26    124.0       2688.    
   749 3093-37-37      37    37.00       2684.    
   750 3093-43-7       43    7.000       2727.    
   751 3094-48-337     48    337.0       2811.    
     MULTIPLE LAYERS AND PROPORTIONS :    2, 0.48       3, 0.52
   752 3094-66-33      66    33.00       2785.    
     MULTIPLE LAYERS AND PROPORTIONS :    2, 0.48       3, 0.52
   753 3094-71-61      71    61.00       2774.    
     MULTIPLE LAYERS AND PROPORTIONS :    2, 0.48       3, 0.52
   754 3057-48-337     48    337.0       2564.    
   755 3057-56-25      56    25.00       2558.    
   756 3011-48-337     48    337.0       2533.    
     MULTIPLE LAYERS AND PROPORTIONS :    2, 0.55       3, 0.45
   757 3011-66-33      66    33.00       2460.    
     MULTIPLE LAYERS AND PROPORTIONS :    2, 0.55       3, 0.45
   758 3011-71-61      71    61.00       2447.    
     MULTIPLE LAYERS AND PROPORTIONS :    2, 0.55       3, 0.45
   759 3026-48-337     48    337.0       2520.    
     MULTIPLE LAYERS AND PROPORTIONS :    2, 0.63       3, 0.37
   760 3026-56-25      56    25.00       2554.    
     MULTIPLE LAYERS AND PROPORTIONS :    2, 0.63       3, 0.37
   761 2999-16-361     16    361.0       2530.    
     MULTIPLE LAYERS AND PROPORTIONS :    2, 0.29       3, 0.71
   762 2999-22-31      22    31.00       2533.    
     MULTIPLE LAYERS AND PROPORTIONS :    2, 0.29       3, 0.71
   763 2999-27-11      27    11.00       2522.    
     MULTIPLE LAYERS AND PROPORTIONS :    2, 0.29       3, 0.71
   764 2999-31-351     31    351.0       2526.    
     MULTIPLE LAYERS AND PROPORTIONS :    2, 0.29       3, 0.71
   765 2999-37-343     37    343.0       2520.    
     MULTIPLE LAYERS AND PROPORTIONS :    2, 0.29       3, 0.71
   766 2999-56-25      56    25.00       2568.    
     MULTIPLE LAYERS AND PROPORTIONS :    2, 0.29       3, 0.71
   767 2999-66-33      66    33.00       2500.    
     MULTIPLE LAYERS AND PROPORTIONS :    2, 0.29       3, 0.71
   768 2999-71-61      71    61.00       2475.    
     MULTIPLE LAYERS AND PROPORTIONS :    2, 0.29       3, 0.71
   769 2994-43-5       43    5.000       2561.    
   770 2994-56-25      56    25.00       2576.    
   771 3029-48-336     48    336.0       2649.    
   772 3029-56-26      56    26.00       2651.    
   773 3029-66-33      66    33.00       2616.    
   774 3008-48-336     48    336.0       2686.    
   775 3008-56-26      56    26.00       2693.    
   776 2963-1-107       1    107.0       1799.    
 Observation within a steady-state time step has been moved to the end of the time step.
   777 2948-17-4       17    4.000       1766.    
   778 2982-48-348     48    348.0       1665.    
   779 2982-55-354     55    354.0       1675.    
   780 2982-61-7       61    7.000       1679.    
   781 2982-66-55      66    55.00       1695.    
   782 2982-71-355     71    355.0       1716.    
   783 2968-71-365     71    365.0       1752.    
   784 2951-42-351     42    351.0       1676.    
   785 2951-48-348     48    348.0       1682.    
   786 2951-55-354     55    354.0       1690.    
   787 2951-61-5       61    5.000       1696.    
   788 2951-66-20      66    20.00       1714.    
   789 2951-71-355     71    355.0       1736.    
   790 2950-12-335     12    335.0       1795.    
   791 2950-55-354     55    354.0       1695.    
   792 2945-1-107       1    107.0       1802.    
 Observation within a steady-state time step has been moved to the end of the time step.
   793 2945-7-3         7    3.000       1799.    
   794 2945-10-320     10    320.0       1798.    
   795 2902-42-351     42    351.0       1680.    
   796 2902-48-348     48    348.0       1690.    
   797 2902-55-354     55    354.0       1697.    
   798 2902-61-5       61    5.000       1703.    
[...]
 1160-26-36      2371.0000000        2394.4965820       -23.496582031    
 1121-26-36      2378.0000000        2406.2797852       -28.279785156    
 1080-26-36      2443.0000000        2424.9543457        18.045654297    
 1048-26-36      2445.0000000        2429.4565430        15.543457031    
 1075-26-36      2428.0000000        2420.0695801        7.9304199219    
 1016-26-36      2387.0000000        2429.8398438       -42.839843750    
 1011-26-36      2378.0000000        2433.2468262       -55.246826172    
 1083-26-35      2391.0000000        2408.8378906       -17.837890625    
 997-26-244      2404.0000000        2423.7985840       -19.798583984    
 910-26-166      2463.0000000        2458.2390137        4.7609863281    
 1212-26-64      2374.0000000        2420.3090820       -46.309082031    
 1131-26-349     2441.0000000        2415.9477539        25.052246094    
 1188-26-60      2481.0000000        2434.9169922        46.083007812    
 1076-26-341     2520.0000000        2489.9682617        30.031738281    
 1000-26-18      2522.0000000        2504.2761230        17.723876953    
 1095-26-18      2462.0000000        2451.8012695        10.198730469    
 1035-26-61      2488.0000000        2461.0830078        26.916992188    
 1037-26-60      2477.0000000        2442.9594727        34.040527344    
 878-26-60       2496.0000000        2476.4208984        19.579101562    
 1250-26-84      2437.0000000        2451.4321289       -14.432128906    
 1251-26-84      2433.0000000        2449.5131836       -16.513183594    
 1195-26-81      2500.0000000        2481.9187012        18.081298828    
 1110-26-62      2530.0000000        2514.3491211        15.650878906    
 1044-26-82      2565.0000000        2581.7492676       -16.749267578    
 1017-26-62      2545.0000000        2559.7155762       -14.715576172    
 973-26-95       2601.0000000        2634.6093750       -33.609375000    
 870-26-95       2615.0000000        2657.0280762       -42.028076172    
 3417-26-95      2627.0000000        2656.5476074       -29.547607422    
 1246-26-305     2722.0000000        2734.2502441       -12.250244141    
 1593-26-18      2766.0000000        2791.8945312       -25.894531250    
 757-26-141      2333.0000000        2382.8854980       -49.885498047    
 758-26-1        2395.0000000        2402.7551270       -7.7551269531    
 722-26-64       2443.0000000        2453.0771484       -10.077148438    
 737-26-1        2415.0000000        2427.7778320       -12.777832031    
 656-26-1        2498.0000000        2508.2756348       -10.275634766    
 602-26-1        2502.0000000        2527.9357910       -25.935791016    
 598-26-1        2492.0000000        2483.7458496        8.2541503906    
 720-26-1        2222.0000000        2254.2165527       -32.216552734    
 674-26-43       2549.0000000        2545.2937012        3.7062988281    
 673-26-49       2545.0000000        2557.1713867       -12.171386719    
 810-26-43       2512.0000000        2495.9260254        16.073974609    
 785-26-65       2582.0000000        2609.1499023       -27.149902344    
 681-26-96       2620.0000000        2634.1650391       -14.165039062    
 608-26-64       2631.0000000        2658.0439453       -27.043945312    
 559-26-60       2643.0000000        2684.9479980       -41.947998047    
 731-26-98       2678.0000000        2725.2792969       -47.279296875    
 683-26-91       2679.0000000        2719.6630859       -40.663085938    
 496-26-56       2578.0000000        2589.2744141       -11.274414062    
 408-26-46       2653.0000000        2693.9609375       -40.960937500    
 391-26-72       2685.0000000        2655.7368164        29.263183594    
 451-26-85       2697.0000000        2744.9855957       -47.985595703    
 477-26-63       2661.0000000        2651.9157715        9.0842285156    
 302-26-47       2680.0000000        2688.0446777       -8.0446777344    
 295-26-47       2724.0000000        2699.8347168        24.165283203    
 281-26-47       2687.0000000        2709.3681641       -22.368164062    
 270-26-41       2694.0000000        2724.4543457       -30.454345703    
 278-26-11       2716.0000000        2718.5212402       -2.5212402344    
 250-26-11       2727.0000000        2736.2866211       -9.2866210938    
 3333-27-99      1707.0000000        1727.9020996       -20.902099609    
 3176-27-347     1652.0000000        1694.5108643       -42.510864258    
 3055-27-126     2453.0000000        2509.5771484       -56.577148438    
 2747-27-253     2052.0000000        2083.0380859       -31.038085938    
 995-27-236      2110.0000000        2094.0451660        15.954833984    
 778-27-348      2610.0000000        2592.9208984        17.079101562    
 718-27-151      2631.0000000        2649.8361816       -18.836181641    
 3239-30-335     2915.0000000        2885.5878906        29.412109375    
 3181-30-185     2850.0000000        2844.4077148        5.5922851562    
 3211-30-274     2885.0000000        2916.3063965       -31.306396484    
 3189-30-181     2873.0000000        2861.7995605        11.200439453    
 3198-30-274     2910.0000000        2893.1992188        16.800781250    
 3192-30-274     2905.0000000        2891.9655762        13.034423828    
 3124-30-213     2790.0000000        2807.5539551       -17.553955078    
 2832-30-108     2015.0000000        2026.9868164       -11.986816406    
 2673-30-244     2073.0000000        2108.3205566       -35.320556641    
 2876-30-99      2185.0000000        2203.0000000       -18.000000000    
 2774-30-91      2193.0000000        2183.3000488        9.6999511719    
 2733-30-27      2093.0000000        2119.8789062       -26.878906250    
 2603-30-29      2118.0000000        2129.8227539       -11.822753906    
 2652-30-27      2115.0000000        2134.7148438       -19.714843750    
 2576-30-30      2130.0000000        2166.5620117       -36.562011719    
 2542-30-30      2154.0000000        2179.2148438       -25.214843750    
 2505-30-29      2150.0000000        2174.9858398       -24.985839844    
 2355-30-1       2157.0000000        2185.5769043       -28.576904297    
 2464-30-29      2154.0000000        2179.7631836       -25.763183594    
 2357-30-30      2173.0000000        2194.9760742       -21.976074219    
 2373-30-30      2161.0000000        2195.0122070       -34.012207031    
 2446-30-30      2180.0000000        2202.2553711       -22.255371094    
 2445-30-121     2188.0000000        2214.4306641       -26.430664062    
 2237-30-34      2202.0000000        2220.9033203       -18.903320312    
 2137-30-35      2201.0000000        2215.6120605       -14.612060547    
 2109-30-30      2196.0000000        2213.5700684       -17.570068359    
 2038-30-1       2202.0000000        2223.1025391       -21.102539062    
 2059-30-35      2212.0000000        2224.1770020       -12.177001953    
 2227-30-273     2279.0000000        2274.0007324        4.9992675781    
 2056-30-18      2281.0000000        2266.8110352        14.188964844    
 2019-30-111     2276.0000000        2269.1699219        6.8300781250    
 1998-30-244     2298.0000000        2310.7275391       -12.727539062    
 2086-30-14      2348.0000000        2343.2014160        4.7985839844    
 2069-30-244     2359.0000000        2363.2490234       -4.2490234375    
 2081-30-105     2369.0000000        2353.3437500        15.656250000    
 2246-30-335     2440.0000000        2494.5791016       -54.579101562    
 2001-30-305     2546.0000000        2535.5017090        10.498291016    
 1617-30-121     2310.0000000        2285.4479980        24.552001953    
 1391-30-43      2344.0000000        2336.4692383        7.5307617188    
 1427-30-11      2340.0000000        2336.2185059        3.7814941406    
 1400-30-42      2345.0000000        2339.7253418        5.2746582031    
 1619-30-57      2328.0000000        2296.6933594        31.306640625    
 1693-30-51      2339.0000000        2343.3923340       -4.3923339844    
 1500-30-56      2304.0000000        2312.2836914       -8.2836914062    
 1312-30-349     2406.0000000        2363.0971680        42.902832031    
 1874-30-1       2575.0000000        2578.2053223       -3.2053222656    
 1857-30-157     2523.0000000        2527.6657715       -4.6657714844    
 1843-30-213     2506.0000000        2507.7138672       -1.7138671875    
 1846-30-43      2486.0000000        2459.3173828        26.682617188    
 1676-30-79      2516.0000000        2505.9536133        10.046386719    
 1574-30-246     2530.0000000        2542.6999512       -12.699951172    
 1368-30-60      2431.0000000        2437.2182617       -6.2182617188    
 1366-30-43      2461.0000000        2463.4250488       -2.4250488281    
 1348-30-43      2520.0000000        2507.0588379        12.941162109    
 1320-30-335     2645.0000000        2587.7529297        57.247070312    
 1276-30-121     2559.0000000        2604.1706543       -45.170654297    
 1751-30-305     2638.0000000        2637.6105957       0.38940429688    
 1752-30-305     2582.0000000        2589.9484863       -7.9484863281    
 1749-30-305     2565.0000000        2581.8449707       -16.844970703    
 1754-30-130     2612.0000000        2600.7895508        11.210449219    
 812-30-6        2350.0000000        2365.1423340       -15.142333984    
 1235-30-43      2363.0000000        2370.5270996       -7.5270996094    
 1197-30-43      2463.0000000        2413.1879883        49.812011719    
 1187-30-182     2476.0000000        2427.2167969        48.783203125    
 1194-30-1       2495.0000000        2466.2678223        28.732177734    
 529-30-351      2510.0000000        2539.0275879       -29.027587891    
 686-30-127      2532.0000000        2531.6008301       0.39916992188    
 488-30-44       2517.0000000        2566.4855957       -49.485595703    
 485-30-351      2554.0000000        2566.4426270       -12.442626953    
 476-30-60       2570.0000000        2576.9636230       -6.9636230469    
 408-30-349      2630.0000000        2694.3571777       -64.357177734    
 402-30-213      2615.0000000        2651.2612305       -36.261230469    
 366-30-42       2663.0000000        2665.1577148       -2.1577148438    
 301-30-342      2660.0000000        2688.7451172       -28.745117188    
 270-30-342      2667.0000000        2718.0183105       -51.018310547    
 3376-31-2       1547.0000000        1569.9962158       -22.996215820    
 3351-31-101     1629.0000000        1640.1973877       -11.197387695    
 3272-31-104     2957.0000000        2921.6413574        35.358642578    
 3145-31-193     1750.0000000        1690.4605713        59.539428711    
 3161-31-244     1725.0000000        1697.8933105        27.106689453    
 3038-31-1       1696.0000000        1754.3546143       -58.354614258    
 3243-31-1       2895.0000000        2887.9516602        7.0483398438    
 3256-31-104     2929.0000000        2887.8510742        41.148925781    
 3208-31-273     2890.0000000        2854.2919922        35.708007812    
 3153-31-348     2821.0000000        2815.4594727        5.5405273438    
 3164-31-283     2845.0000000        2841.8686523        3.1313476562    
 3093-31-104     2691.0000000        2738.1496582       -47.149658203    
 2787-31-57      1715.0000000        1728.4393311       -13.439331055    
 2734-31-1       1719.0000000        1727.1375732       -8.1375732422    
 2823-31-196     1708.0000000        1720.3768311       -12.376831055    
 2927-31-29      1953.0000000        1944.3804932        8.6195068359    
 2743-31-220     2083.0000000        2093.6616211       -10.661621094    
 2756-31-252     2034.0000000        2068.1435547       -34.143554688    
 2699-31-1       2064.0000000        2092.4616699       -28.461669922    
 2687-31-266     2081.0000000        2086.0256348       -5.0256347656    
 2615-31-1       1813.0000000        1805.6590576        7.3409423828    
 2650-31-60      2101.0000000        2091.8203125        9.1796875000    
 2558-31-121     2120.0000000        2136.8774414       -16.877441406    
 2475-31-120     2142.0000000        2182.5058594       -40.505859375    
 2460-31-120     2159.0000000        2185.6125488       -26.612548828    
 2427-31-120     2172.0000000        2200.2395020       -28.239501953    
 2326-31-121     2234.0000000        2236.3720703       -2.3720703125    
 2212-31-121     2209.0000000        2217.1013184       -8.1013183594    
 1991-31-36      2203.0000000        2223.5815430       -20.581542969    
 1958-31-36      2205.0000000        2228.3281250       -23.328125000    
 2057-31-121     2211.0000000        2227.3940430       -16.394042969    
 1951-31-36      2239.0000000        2252.1274414       -13.127441406    
 2014-31-121     2308.0000000        2282.9477539        25.052246094    
 1974-31-120     2295.0000000        2284.5375977        10.462402344    
 2102-31-119     2325.0000000        2333.8632812       -8.8632812500    
 2054-31-91      2321.0000000        2327.0903320       -6.0903320312    
 2339-31-78      2474.0000000        2493.4504395       -19.450439453    
 2330-31-196     2520.0000000        2560.9567871       -40.956787109    
 2100-31-78      2521.0000000        2522.6965332       -1.6965332031    
 2043-31-211     2485.0000000        2485.0603027      -6.03027343750E-02
 1849-31-1       2249.0000000        2261.9916992       -12.991699219    
 1471-31-113     2330.0000000        2316.3979492        13.602050781    
 1461-31-40      2308.0000000        2316.8229980       -8.8229980469    
 1321-31-40      2335.0000000        2350.1787109       -15.178710938    
 1306-31-113     2337.0000000        2350.9130859       -13.913085938    
 1307-31-113     2342.0000000        2350.7297363       -8.7297363281    
 1305-31-121     2345.0000000        2352.8891602       -7.8891601562    
 1886-31-119     2327.0000000        2332.3176270       -5.3176269531    
 1879-31-119     2322.0000000        2325.3142090       -3.3142089844    
 1779-31-119     2295.0000000        2292.5417480        2.4582519531    
 1724-31-118     2294.0000000        2290.8100586        3.1899414062    
 1694-31-119     2307.0000000        2310.0007324       -3.0007324219    
 1695-31-120     2314.0000000        2307.4487305        6.5512695312    
 1596-31-119     2320.0000000        2330.1804199       -10.180419922    
 1683-31-68      2347.0000000        2359.2019043       -12.201904297    
 1552-31-117     2327.0000000        2324.2756348        2.7243652344    
 1533-31-118     2316.0000000        2310.2753906        5.7246093750    
 1813-31-117     2308.0000000        2308.3950195      -0.39501953125    
 1538-31-117     2310.0000000        2306.0046387        3.9953613281    
 1470-31-117     2313.0000000        2316.5556641       -3.5556640625    
 1453-31-117     2336.0000000        2338.0808105       -2.0808105469    
 1502-31-120     2339.0000000        2363.1083984       -24.108398438    
 1416-31-62      2338.0000000        2325.8369141        12.163085938    
 1784-31-148     2366.0000000        2381.7158203       -15.715820312    
 1659-31-114     2355.0000000        2382.5290527       -27.529052734    
 1671-31-114     2350.0000000        2370.1352539       -20.135253906    
 1602-31-114     2371.0000000        2459.8481445       -88.848144531    
 1507-31-114     2358.0000000        2400.4421387       -42.442138672    
 1514-31-114     2349.0000000        2387.2858887       -38.285888672    
 1495-31-69      2358.0000000        2404.6604004       -46.660400391    
 1484-31-114     2348.0000000        2398.0422363       -50.042236328    
 1483-31-114     2436.0000000        2464.2026367       -28.202636719    
 1239-31-113     2352.0000000        2363.0288086       -11.028808594    
 1234-31-113     2349.0000000        2360.8264160       -11.826416016    
 1099-31-117     2361.0000000        2415.0329590       -54.032958984    
 853-31-118      2482.0000000        2466.2443848        15.755615234    
 720-31-1        2221.0000000        2252.0095215       -31.009521484    
 729-31-118      2508.0000000        2514.2377930       -6.2377929688    
 679-31-118      2516.0000000        2526.6281738       -10.628173828    
 810-31-118      2479.0000000        2481.4499512       -2.4499511719    
 299-31-59       2671.0000000        2695.8557129       -24.855712891    
 3281-32-351     1586.0000000        1625.1401367       -39.140136719    
 3347-32-97      2965.0000000        2958.3918457        6.6081542969    
 3051-32-152     1691.0000000        1693.3378906       -2.3378906250    
 3004-32-94      2011.0000000        2005.8521729        5.1478271484    
 2997-32-94      2234.0000000        2250.4008789       -16.400878906    
 3016-32-94      2280.0000000        2330.5100098       -50.510009766    
 3055-32-94      2452.0000000        2514.4731445       -62.473144531    
 2880-32-95      2083.0000000        2072.9140625        10.085937500    
 2883-32-196     2011.0000000        2028.9804688       -17.980468750    
 2977-32-96      2361.0000000        2373.3999023       -12.399902344    
 2914-32-96      2130.0000000        2118.2612305        11.738769531    
 2930-32-96      2337.0000000        2343.7062988       -6.7062988281    
 2869-32-96      2320.0000000        2333.3144531       -13.314453125    
 2898-32-96      2125.0000000        2112.1699219        12.830078125    
 2841-32-96      2182.0000000        2203.0678711       -21.067871094    
 2742-32-95      2130.0000000        2139.6523438       -9.6523437500    
 2956-32-95      2527.0000000        2523.3359375        3.6640625000    
 2441-32-216     1804.0000000        1774.3298340        29.670166016    
 2477-32-137     1798.0000000        1797.9592285       4.07714843750E-02
 2334-32-335     2382.0000000        2385.6811523       -3.6811523438    
 2314-32-342     2365.0000000        2356.6027832        8.3972167969    
 2331-32-29      2480.0000000        2530.8696289       -50.869628906    
 2128-32-154     2478.0000000        2445.4018555        32.598144531    
 2092-32-154     2468.0000000        2438.6984863        29.301513672    
 2085-32-154     2448.0000000        2474.0976562       -26.097656250    
 1278-32-50      2361.0000000        2358.1296387        2.8703613281    
 1791-32-119     2331.0000000        2336.5517578       -5.5517578125    
 1131-32-62      2436.0000000        2406.4086914        29.591308594    
 1035-32-71      2477.0000000        2444.9404297        32.059570312    
 2799-35-122     1998.0000000        2030.9807129       -32.980712891    
 861-35-329      2230.0000000        2159.4445801        70.555419922    
 3038-36-52      1680.0000000        1742.1185303       -62.118530273    
 2937-36-86      1764.0000000        1790.2164307       -26.216430664    
 1428-36-91      1955.0000000        1938.4428711        16.557128906    
 1106-36-164     2031.0000000        2046.3115234       -15.311523438    
 727-36-333      2585.0000000        2607.7324219       -22.732421875    
 492-36-108      2478.0000000        2511.7497559       -33.749755859    
 380-36-78       2594.0000000        2473.5026855        120.49731445    
 3318-37-364     1613.0000000        1650.1519775       -37.151977539    
 2476-37-182     2165.0000000        2190.9274902       -25.927490234    
 2437-37-1       2175.0000000        2197.8828125       -22.882812500    
 1436-37-201     2321.0000000        2333.1450195       -12.145019531    
 974-37-342      2328.0000000        2407.4829102       -79.482910156    
 981-37-84       2562.0000000        2593.0910645       -31.091064453    
 814-37-58       2570.0000000        2600.9211426       -30.921142578    
 697-37-41       2615.0000000        2659.7788086       -44.778808594    
 659-37-16       2662.0000000        2622.1848145        39.815185547    

 SUM OF SQUARED DIFFERENCE:    7.99625E+06

 Run end date and time (yyyy/mm/dd hh:mm:ss): 2015/01/26  9:19:39
 Elapsed run time: 55.299 Seconds

