                                  MODFLOW-NWT-SWR1 
      U.S. GEOLOGICAL SURVEY MODULAR FINITE-DIFFERENCE GROUNDWATER-FLOW MODEL
                            VERSION 1.1.2, 9/15/2016
                    BASED ON MODFLOW-2005 VERSION 1.11.00 08/30/2013

 LIST FILE: nwt40_gmres.lst
                         UNIT   30

 OPENING 4010.hds
 FILE TYPE:DATA   UNIT   31   STATUS:UNKNOWN
 FORMAT:FORMATTED              ACCESS:SEQUENTIAL          

 OPENING graphs.out
 FILE TYPE:DATA(BINARY)   UNIT   33   STATUS:UNKNOWN
 FORMAT:UNFORMATTED            ACCESS:STREAM              

 OPENING hobs.dat
 FILE TYPE:DATA   UNIT   34   STATUS:UNKNOWN
 FORMAT:FORMATTED              ACCESS:SEQUENTIAL          

 OPENING lost_pumpage.dat
 FILE TYPE:DATA   UNIT   35   STATUS:UNKNOWN
 FORMAT:FORMATTED              ACCESS:SEQUENTIAL          

 OPENING cbc.bgt
 FILE TYPE:DATA(BINARY)   UNIT   39   STATUS:UNKNOWN
 FORMAT:UNFORMATTED            ACCESS:STREAM              
#                                                                                                                                                                                                                                                                                                           
#  Model Input files                                                                                                                                                                                                                                                                                        
#                                                                                                                                                                                                                                                                                                           

 OPENING tuc2011d.hob
 FILE TYPE:HOB   UNIT    8   STATUS:OLD    
 FORMAT:FORMATTED              ACCESS:SEQUENTIAL          

 OPENING tuchyd93.hyd
 FILE TYPE:HYD   UNIT    9   STATUS:OLD    
 FORMAT:FORMATTED              ACCESS:SEQUENTIAL          
#                                                                                                                                                                                                                                                                                                           
#  Parameter Files                                                                                                                                                                                                                                                                                          

 OPENING tuc1940q1.dis
 FILE TYPE:DIS   UNIT   10   STATUS:OLD    
 FORMAT:FORMATTED              ACCESS:SEQUENTIAL          

 OPENING tuc1940z.bas
 FILE TYPE:BAS6   UNIT   11   STATUS:OLD    
 FORMAT:FORMATTED              ACCESS:SEQUENTIAL          

 OPENING tuc1940t.upw
 FILE TYPE:UPW   UNIT   12   STATUS:OLD    
 FORMAT:FORMATTED              ACCESS:SEQUENTIAL          
#  Stress Files                                                                                                                                                                                                                                                                                             

 OPENING tuc2010q10.wel
 FILE TYPE:WEL   UNIT   13   STATUS:OLD    
 FORMAT:FORMATTED              ACCESS:SEQUENTIAL          

 OPENING TUC1940d.EVT
 FILE TYPE:EVT   UNIT   14   STATUS:OLD    
 FORMAT:FORMATTED              ACCESS:SEQUENTIAL          

 OPENING tuc2010a3.chd
 FILE TYPE:CHD   UNIT   15   STATUS:OLD    
 FORMAT:FORMATTED              ACCESS:SEQUENTIAL          

 OPENING tuc2010n1.rch
 FILE TYPE:RCH   UNIT   16   STATUS:OLD    
 FORMAT:FORMATTED              ACCESS:SEQUENTIAL          
#  Solver & Output Control                                                                                                                                                                                                                                                                                  
#NWT              19      xMD1.nwt                                                                                                                                                                                                                                                                          

 OPENING gmres1.nwt
 FILE TYPE:NWT   UNIT   19   STATUS:OLD    
 FORMAT:FORMATTED              ACCESS:SEQUENTIAL          

 OPENING tuc4010a1.oc
 FILE TYPE:OC   UNIT   22   STATUS:OLD    
 FORMAT:FORMATTED              ACCESS:SEQUENTIAL          

 BAS -- BASIC PACKAGE, VERSION 1.1.2, 9/15/2016 INPUT READ FROM UNIT   11

 MODFLOW was compiled using mixed precision
 Precision of REAL variables:           6
 Precision of DOUBLE PRECISION variables:          15

 DISCRETIZATION INPUT DATA READ FROM UNIT   10
 # TUCSON AMA GROUNDWATER FLOW MODEL - 1940-2010 UPDATE
 # MODEL DISCRETIZATION FILE: 08/08/2012
 # STEADY-STATE - TRANSIENT PHASE: 1940-2008  LENGTH=FEET  TIME=DAYS
    3 LAYERS       130 ROWS       100 COLUMNS
   71 STRESS PERIOD(S) IN SIMULATION
 MODEL TIME UNIT IS DAYS
 MODEL LENGTH UNIT IS FEET
  Confining bed flag for each layer:
   0   0   0

                     DELR =   2640.00    

                     DELC =   2640.00    



           TOP ELEVATION OF LAYER 1
 READING ON UNIT   10 WITH FORMAT: (15F5.0)            



             MODEL LAYER BOTTOM EL. FOR LAYER   1
 READING ON UNIT   10 WITH FORMAT: (15F5.0)            



             MODEL LAYER BOTTOM EL. FOR LAYER   2
 READING ON UNIT   10 WITH FORMAT: (15F5.0)            



             MODEL LAYER BOTTOM EL. FOR LAYER   3
 READING ON UNIT   10 WITH FORMAT: (15F5.0)            


 STRESS PERIOD     LENGTH       TIME STEPS     MULTIPLIER FOR DELT    SS FLAG
 ----------------------------------------------------------------------------
        1         366.0000          1                    1.000         SS
        2         365.0000         12                    1.000         TR
        3         365.0000         12                    1.000         TR
        4         365.0000         12                    1.000         TR
        5         366.0000         12                    1.000         TR
        6         365.0000         12                    1.000         TR
        7         365.0000         12                    1.000         TR
        8         365.0000         12                    1.000         TR
        9         366.0000         12                    1.000         TR
       10         365.0000         12                    1.000         TR
       11         365.0000         12                    1.000         TR
       12         365.0000         12                    1.000         TR
       13         366.0000         12                    1.000         TR
       14         365.0000         12                    1.000         TR
       15         365.0000         12                    1.000         TR
       16         365.0000         12                    1.000         TR
       17         366.0000         12                    1.000         TR
       18         365.0000         12                    1.000         TR
       19         365.0000         12                    1.000         TR
       20         365.0000         12                    1.000         TR
       21         366.0000         12                    1.000         TR
       22         365.0000         12                    1.000         TR
       23         365.0000         12                    1.000         TR
       24         365.0000         12                    1.000         TR
       25         366.0000         12                    1.000         TR
       26         365.0000         12                    1.000         TR
       27         365.0000         12                    1.000         TR
       28         365.0000         12                    1.000         TR
       29         366.0000         12                    1.000         TR
       30         365.0000         12                    1.000         TR
       31         365.0000         12                    1.000         TR
       32         365.0000         12                    1.000         TR
       33         366.0000         12                    1.000         TR
       34         365.0000         12                    1.000         TR
       35         365.0000         12                    1.000         TR
       36         365.0000         12                    1.000         TR
       37         366.0000         12                    1.000         TR
       38         365.0000         12                    1.000         TR
       39         365.0000         12                    1.000         TR
       40         365.0000         12                    1.000         TR
       41         366.0000         12                    1.000         TR
       42         365.0000         12                    1.000         TR
       43         365.0000         12                    1.000         TR
       44         365.0000         12                    1.000         TR
       45         366.0000         12                    1.000         TR
       46         365.0000         12                    1.000         TR
       47         365.0000         12                    1.000         TR
       48         365.0000         12                    1.000         TR
       49         366.0000         12                    1.000         TR
       50         365.0000         12                    1.000         TR
       51         365.0000         12                    1.000         TR
       52         365.0000         12                    1.000         TR
       53         366.0000         12                    1.000         TR
       54         365.0000         12                    1.000         TR
       55         365.0000         12                    1.000         TR
       56         365.0000         12                    1.000         TR
       57         366.0000         12                    1.000         TR
       58         365.0000         12                    1.000         TR
       59         365.0000         12                    1.000         TR
       60         365.0000         12                    1.000         TR
       61         366.0000         12                    1.000         TR
       62         365.0000         12                    1.000         TR
       63         365.0000         12                    1.000         TR
       64         365.0000         12                    1.000         TR
       65         366.0000         12                    1.000         TR
       66         365.0000         12                    1.000         TR
       67         365.0000         12                    1.000         TR
       68         365.0000         12                    1.000         TR
       69         366.0000         12                    1.000         TR
       70         365.0000         12                    1.000         TR
       71         365.0000         12                    1.000         TR

 COMBINED STEADY-STATE AND TRANSIENT SIMULATION




 # TUCSON AMA GROUNDWATER FLOW MODEL                                             
 # MODFLOW BASIC PACKAGE - 4/17/2014                                             
 # TRANSIENT PROJECTION: 1940-2010
 # MODEL UNITS: LENGTH=FEET  TIME=DAYS  PERLIN=365 DAYS
 THE FREE FORMAT OPTION HAS BEEN SELECTED



                     BOUNDARY ARRAY FOR LAYER   1
 READING ON UNIT   11 WITH FORMAT: (FREE)              



                     BOUNDARY ARRAY FOR LAYER   2
 READING ON UNIT   11 WITH FORMAT: (FREE)              



                     BOUNDARY ARRAY FOR LAYER   3
 READING ON UNIT   11 WITH FORMAT: (FREE)              

 AQUIFER HEAD WILL BE SET TO   0.0000     AT ALL NO-FLOW NODES (IBOUND=0).



                       INITIAL HEAD FOR LAYER   1
 READING ON UNIT   11 WITH FORMAT: (15F5.0)            



                       INITIAL HEAD FOR LAYER   2
 READING ON UNIT   11 WITH FORMAT: (15F5.0)            



                       INITIAL HEAD FOR LAYER   3
 READING ON UNIT   11 WITH FORMAT: (15F5.0)            

 OUTPUT CONTROL IS SPECIFIED ONLY AT TIME STEPS FOR WHICH OUTPUT IS DESIRED
 HEADS WILL BE SAVED WITH FORMAT: (20f7.1)            
 SAVED HEADS WILL BE LABELED
 COMPACT CELL-BY-CELL BUDGET FILES WILL BE WRITTEN
 HEAD PRINT FORMAT CODE IS   0    DRAWDOWN PRINT FORMAT CODE IS   0
 HEADS WILL BE SAVED ON UNIT   31    DRAWDOWNS WILL BE SAVED ON UNIT    0
 # NWT Input File
 # GMRES solver
 #HEADTOL  FLUXTOL MAXITEROUT THICKFACT LINMETH IPRNWT IBOTAV OPTIONS    DBDREDUCE DBDINCREASE DBDGAMMA MOMFACT BACKFLAG MAXBACKITER BACKTOL BACKREDUCE

 NWT1 -- Newton Solver, VERSION 1.1.2, 9/15/2016
         INPUT READ FROM UNIT 19

 SPECIFIED OPTION:
 SOLVER INPUT VALUES ARE SPECIFIED BY USER
 ***GMRES linear solver will be used***

   CONVERGENCE CRITERION OF   0.100000E-01 FOR HEAD SOLUTION
   AND A TOLERANCE OF   0.864000E+03 FOR FLOW SOLUTION AND 
   A MAXIMUM OF   200 OUTER ITERATIONS. 


   D-B-D REDUCTION FACTOR OF    0.900000E+00 AND 
   A D-B-D INCREASE FACTOR OF    0.100000E-03 AND 
   A D-B-D RELAXATION OF    0.000000E+00 AND 
   A MOMENTUM FACTOR OF    0.100000E+00 .


   BACKTRACKING IS ACTIVE 
   THE MAXIMUM NUMBER OF BACKTRACKS IS    30 AND 
   THE BACKTRACKING TOLERANCE IS    0.200000E+01 AND
   THE BACKTRACKING REDUCTION FACTOR IS    0.900000E+00

 GMRES -- LINEAR SOLUTION BY GMRES PACKAGE 
     adapted for HYDROTHERM by Kipp and others (2008)
     using software originally developed by Saad (1990) 19
     using algorithms described in Saad (2003)

 UPW1 -- UPSTREAM WEIGHTING FLOW PACKAGE, VERSION 1.1.2, 9/15/2016
         INPUT READ FROM UNIT 12

 # TUCSON AMA GROUNDWATER FLOW MODEL - 1940-2010
 # Upstream-Weighting Package (UPW): 04/17/2014
 # STEADY-STATE/TRANSIENT PHASE: 1940-2010
 CELL-BY-CELL FLOWS WILL BE SAVED ON UNIT   39
 No named parameters

   LAYER FLAGS:
 LAYER       LAYTYP          LAYAVG    CHANI           LAYVKA           LAYWET
 ---------------------------------------------------------------------------
    1             1             0     1.000E+00             1             0
    2             3             0     1.000E+00             1             0
    3             3             0     1.000E+00             1             0

   INTERPRETATION OF LAYER FLAGS:
                        INTERBLOCK     HORIZONTAL    DATA IN
         LAYER TYPE   TRANSMISSIVITY   ANISOTROPY   ARRAY VKA   WETTABILITY
 LAYER   (LAYTYP)        (LAYAVG)      (CHANI)     (LAYVKA)       (LAYWET)
 ---------------------------------------------------------------------------
    1   CONVERTIBLE      HARMONIC     1.000E+00    ANISOTROPY  NON-WETTABLE
    2   CONVERTIBLE      HARMONIC     1.000E+00    ANISOTROPY  NON-WETTABLE
    3   CONVERTIBLE      HARMONIC     1.000E+00    ANISOTROPY  NON-WETTABLE



              HYD. COND. ALONG ROWS FOR LAYER   1
 READING ON UNIT   12 WITH FORMAT: (FREE)              



            HORIZ. TO VERTICAL ANI. FOR LAYER   1
 READING ON UNIT   12 WITH FORMAT: (FREE)              

         SPECIFIC STORAGE =  1.000000E-06 FOR LAYER   1



                     SPECIFIC YIELD FOR LAYER   1
 READING ON UNIT   12 WITH FORMAT: (FREE)              



              HYD. COND. ALONG ROWS FOR LAYER   2
 READING ON UNIT   12 WITH FORMAT: (FREE)              



            HORIZ. TO VERTICAL ANI. FOR LAYER   2
 READING ON UNIT   12 WITH FORMAT: (FREE)              

         SPECIFIC STORAGE =  1.000000E-06 FOR LAYER   2



                     SPECIFIC YIELD FOR LAYER   2
 READING ON UNIT   12 WITH FORMAT: (FREE)              



              HYD. COND. ALONG ROWS FOR LAYER   3
 READING ON UNIT   12 WITH FORMAT: (FREE)              



            HORIZ. TO VERTICAL ANI. FOR LAYER   3
 READING ON UNIT   12 WITH FORMAT: (FREE)              

         SPECIFIC STORAGE =  1.000000E-06 FOR LAYER   3



                     SPECIFIC YIELD FOR LAYER   3
 READING ON UNIT   12 WITH FORMAT: (FREE)              

 WEL -- WELL PACKAGE FOR NWT VERSION 1.1.2,  9/15/2016 INPUT READ FROM UNIT   13
 # Tucson Model 1940 to 2010 Pumpage File
 # File Date: 02/3/2014
 # TARP pumpage reduced by 95%
 # Source: H:\TUCSON\GIS\SHAPEFILES\MODEL_PUMPAGE1940-2010_V7.DBF
 #      6000       39 NOPRINT
 #SPECIFY   0.02   35
 No named parameters
 MAXIMUM OF    408 ACTIVE WELLS AT ONE TIME


     0 Well parameters

 EVT -- EVAPOTRANSPIRATION PACKAGE, VERSION 7, 5/2/2005
         INPUT READ FROM UNIT   14
 #  TUCSON MODEL UPDATE 1940-2009: EVT PACKAGE
 #  Et Rates converted to ac-ft per year
 #  All ET set to be drawn from the upper most layer
 #  Max ET Rate increased 25%:  Multiplier increased 1.7123E-5 -> 2.1406E-5
 No named parameters
 OPTION 1 -- EVAPOTRANSPIRATION FROM TOP LAYER
 CELL-BY-CELL FLOWS WILL BE SAVED ON UNIT   39


     0 Evapotranspiration parameters

 RCH -- RECHARGE PACKAGE, VERSION 7, 5/2/2005 INPUT READ FROM UNIT   16
 #  Recharge Package 1940 -> 2010 - 04/23/2014
 #  Ag recharge percentages are 33-28-25
 #  Recharge package with mountain-front and
 #  lagged USF recharge for LSCRP fixed
 #
 No named parameters
 OPTION 3 -- RECHARGE TO HIGHEST ACTIVE NODE IN EACH VERTICAL COLUMN
 CELL-BY-CELL FLOWS WILL BE SAVED ON UNIT   39


     0 Recharge parameters

 CHD -- TIME-VARIANT SPECIFIED-HEAD OPTION, VERSION 7, 5/2/2005
 INPUT READ FROM UNIT   15
 # Constant Head Package: 1940-2010
 # Tucson Groundwater Flow Model Transient Phase
 # Created using text file test1.txt - 2/23/2012
 # Pinal heads are 8 feet less than the simulated heads
 No named parameters
 MAXIMUM OF     63 TIME-VARIANT SPECIFIED-HEAD CELLS AT ONE TIME
 LISTS OF TIME-VARIANT SPECIFIED-HEAD CELLS WILL NOT BE PRINTED


     0 TIME-VARIANT SPECIFIED-HEAD PARAMETERS

 HYD -- HYDROGRAPH DATA FOR BAS PACKAGE, VERSION 7, 07/14/2006
         INPUT READ FROM UNIT  9
 HYDROGRAPH VALUES WILL BE SAVED ON UNIT:  33
 HYDROGRAPH VALUES AT DRY CELLS WILL BE:   -666.00    

 ARR INTYP  KLAY     XL            YL         HYDLBL
 ----------------------------------------------------------------
 HD   I      2   3.47192E+04   3.26268E+05  HDI002D-10-09-12CBC 
 HD   I      2   3.17765E+04   3.21662E+05  HDI002D-10-09-14CAA 
 HD   I      2   3.97224E+04   3.20634E+05  HDI002D-10-09-24DDD 
 HD   I      2   5.01975E+04   3.31511E+05  HDI002D-10-10-05DAD 
 HD   I      1   4.82614E+04   3.14342E+05  HDI001D-10-10-20DCC 
 HD   I      3   1.67478E+05   3.28933E+05  HDI003D-10-13-12DDA 
 HD   I      2   1.76558E+05   3.12876E+05  HDI002D-10-14-29DCA 
 HD   I      2   4.73470E+04   2.95857E+05  HDI002D-11-10-08DDD 
 HD   I      2   5.79608E+04   2.94613E+05  HDI002D-11-10-15AAD 
 HD   I      2   5.76848E+04   2.87946E+05  HDI002D-11-10-22ADD1
 HD   I      2   6.83984E+04   2.90443E+05  HDI002D-11-10-24AAA 
 HD   I      2   6.83752E+04   2.80643E+05  HDI002D-11-10-25DDA2
 HD   I      2   8.21897E+04   2.91320E+05  HDI002D-11-11-16CDD 
 HD   I      3   8.21897E+04   2.91320E+05  HDI003D-11-11-16CDD 
 HD   I      2   9.15970E+04   2.83522E+05  HDI002D-11-11-26BDC 
 HD   I      2   8.99591E+04   2.78171E+05  HDI002D-11-11-34ADD 
 HD   I      3   8.99591E+04   2.78171E+05  HDI003D-11-11-34ADD 
 HD   I      2   5.24757E+04   2.64220E+05  HDI002D-12-10-09DDD 
 HD   I      2   6.42663E+04   2.65469E+05  HDI002D-12-10-12CDD 
 HD   I      3   6.42663E+04   2.65469E+05  HDI003D-12-10-12CDD 
 HD   I      2   6.17957E+04   2.56212E+05  HDI002D-12-10-23DAB 
 HD   I      2   9.67122E+04   2.67653E+05  HDI002D-12-11-12BDC 
 HD   I      2   7.95526E+04   2.59503E+05  HDI002D-12-11-20AAA 
 HD   I      2   1.13419E+05   2.63386E+05  HDI002D-12-12-16BAD 
 HD   I      2   1.20787E+05   2.57115E+05  HDI002D-12-12-22ADC 
 HD   I      2   1.15974E+05   2.48533E+05  HDI002D-12-12-33AAA 
 HD   I      2   1.36473E+05   2.50639E+05  HDI002D-12-13-30DAC 
 HD   I      2   1.69992E+05   2.69936E+05  HDI002D-12-14-05CCD 
 HD   I      3   4.96494E+04   2.37760E+05  HDI003D-13-10-04CDD 
 HD   I      3   6.03308E+04   2.21868E+05  HDI003D-13-10-23CDD 
 HD   I      2   6.83726E+04   2.11442E+05  HDI002D-13-11-31CCC1
 HD   I      3   6.83726E+04   2.11442E+05  HDI003D-13-11-31CCC1
 HD   I      2   1.37326E+05   2.43566E+05  HDI002D-13-13-06AAA2
 HD   I      2   1.27238E+05   2.38920E+05  HDI002D-13-13-06DDD 
 HD   I      2   1.39899E+05   2.38212E+05  HDI002D-13-13-08BAA 
 HD   I      2   1.59116E+05   2.33159E+05  HDI002D-13-13-13BBA 
 HD   I      1   1.42469E+05   2.29623E+05  HDI001D-13-13-17DAD 
 HD   I      1   1.44785E+05   2.27704E+05  HDI001D-13-13-21BAA 
 HD   I      2   1.47530E+05   2.19924E+05  HDI002D-13-13-28ADD 
 HD   I      2   1.47273E+05   2.13662E+05  HDI002D-13-13-33DAC 
 HD   I      2   1.62726E+05   2.12350E+05  HDI002D-13-13-36DDC 
 HD   I      2   1.63835E+05   2.27705E+05  HDI002D-13-14-19BBB1
 HD   I      2   1.85724E+05   2.22468E+05  HDI002D-13-14-26BBB 
 HD   I      2   1.81350E+05   2.17816E+05  HDI002D-13-14-27CDC1
 HD   I      2   1.84441E+05   2.16607E+05  HDI002D-13-14-34AAD 
 HD   I      1   1.91401E+05   2.12372E+05  HDI001D-13-14-36CCD 
 HD   I      1   2.15602E+05   2.17461E+05  HDI001D-13-15-27DDC 
 HD   I      2   7.39286E+04   2.00922E+05  HDI002D-14-11-08CCC1
 HD   I      3   7.39286E+04   2.00922E+05  HDI003D-14-11-08CCC1
 HD   I      2   7.87016E+04   1.85152E+05  HDI002D-14-11-29DDD 
 HD   I      3   1.49677E+05   2.08711E+05  HDI003D-14-13-03CAC 
 HD   I      2   1.56033E+05   1.88406E+05  HDI002D-14-13-26DBB 
 HD   I      2   1.52252E+05   1.83052E+05  HDI002D-14-13-34ADC 
 HD   I      2   1.55001E+05   1.82547E+05  HDI002D-14-13-35CAB 
 HD   I      2   1.70627E+05   2.06292E+05  HDI002D-14-14-08BAB 
 HD   I      2   1.82652E+05   2.04281E+05  HDI002D-14-14-10ACC1
 HD   I      2   1.86523E+05   1.97819E+05  HDI002D-14-14-14CAC 
 HD   I      2   1.74670E+05   1.98415E+05  HDI002D-14-14-16CBB1
 HD   I      2   1.69775E+05   1.93563E+05  HDI002D-14-14-20CBB 
 HD   I      2   1.90402E+05   1.85499E+05  HDI002D-14-14-35AAA 
 HD   I      2   2.21974E+05   2.07776E+05  HDI002D-14-15-02DDA1
 HD   I      2   2.00261E+05   2.00463E+05  HDI002D-14-15-18AAC 
 HD   I      2   2.01057E+05   1.85311E+05  HDI002D-14-15-32BBB 
 HD   I      2   6.25477E+04   1.52763E+05  HDI002D-15-10-35AAA 
 HD   I      3   7.41254E+04   1.74757E+05  HDI003D-15-11-05CCD 
 HD   I      2   9.44895E+04   1.72190E+05  HDI002D-15-11-11ADD 
 HD   I      3   9.44895E+04   1.72190E+05  HDI003D-15-11-11ADD 
 HD   I      1   1.56722E+05   1.78910E+05  HDI001D-15-13-02ACA1
 HD   I      1   1.54144E+05   1.71940E+05  HDI001D-15-13-11CBA 
 HD   I      1   1.51394E+05   1.58706E+05  HDI001D-15-13-27ABB1
 HD   I      3   1.85084E+05   1.76604E+05  HDI003D-15-14-03DAD 
 HD   I      2   1.64631E+05   1.71336E+05  HDI002D-15-14-07CBC 
 HD   I      3   1.64120E+05   1.59214E+05  HDI003D-15-14-19CCC 
 HD   I      3   1.64123E+05   1.50829E+05  HDI003D-15-14-31CBB1
 HD   I      2   1.95823E+05   1.79748E+05  HDI002D-15-15-06BBB 
 HD   I      2   2.24838E+05   1.54948E+05  HDI002D-15-15-25DBC2
 HD   I      2   3.63196E+04   1.29003E+05  HDI002D-16-09-24DAC 
 HD   I      2   7.41227E+04   1.37178E+05  HDI002D-16-11-08CCC 
 HD   I      3   1.52254E+05   1.20824E+05  HDI003D-16-13-34AAB2
 HD   I      2   1.54404E+05   1.47695E+05  HDI002D-16-13S02BBA2
 HD   I      1   1.65161E+05   1.37495E+05  HDI001D-16-14-07CCD 
 HD   I      2   1.64907E+05   1.26989E+05  HDI002D-16-14-19CCD 
 HD   I      2   1.73942E+05   1.30732E+05  HDI002D-16-14-20ADA 
 HD   I      2   1.71539E+05   1.19012E+05  HDI002D-16-14-32BDD2
 HD   I      2   1.99234E+05   1.37930E+05  HDI002D-16-15-18ABD 
 HD   I      3   2.41308E+05   1.38623E+05  HDI003D-16-16-09DCD2
 HD   I      2   1.60003E+05   1.13653E+05  HDI002D-17-13-01CAB 
 HD   I      1   1.58891E+05   8.63786E+04  HDI001D-17-13-36CBC2
 HD   I      2   1.71895E+05   1.00122E+05  HDI002D-17-14-17DCC 
 HD   I      2   1.63972E+05   9.43603E+04  HDI002D-17-14-30BBB 
 HD   I      3   2.20194E+05   1.13015E+05  HDI003D-17-15-02DCD 
 HD   I      2   1.61219E+05   7.99142E+04  HDI002D-18-13-01CDA 
 HD   I      2   1.59669E+05   7.08220E+04  HDI002D-18-13-13CBA 
 HD   I      2   1.58637E+05   6.21349E+04  HDI002D-18-13-26AAD 
 HD   I      1   1.54583E+05   5.80934E+04  HDI001D-18-13-26CCD 
 HD   I      1   1.58984E+05   5.56700E+04  HDI001D-18-13-36BCC 
 HD   I      1   1.45440E+05   4.50633E+04  HDI001D-19-13-09CAA 
 HD   I      2   1.38013E+05   2.95093E+04  HDI002D-19-13-29BCC 
 HD   I      2   1.48392E+05   2.59222E+05  HDI002D-12-13-22BBB 
 HD   I      3   2.21974E+05   2.07776E+05  HDI003D-14-15-02DDA1
 HD   I      1   1.74585E+05   1.96698E+05  HDI001D-14-14-16CCC1
 HD   I      2   1.74585E+05   1.96698E+05  HDI002D-14-14-16CCC2
 HD   I      3   1.74585E+05   1.96698E+05  HDI003D-14-14-16CCC3
 HD   I      1   2.06415E+05   1.66732E+05  HDI001D-15-15-16CBB1
 HD   I      2   2.06415E+05   1.66732E+05  HDI002D-15-15-16CBB2
 HD   I      3   2.06415E+05   1.66732E+05  HDI003D-15-15-16CBB3
 HD   I      1   2.00772E+05   1.45509E+05  HDI001D-16-15-05CBC1
 HD   I      2   2.00772E+05   1.45509E+05  HDI002D-16-15-05CBC2
 HD   I      3   2.00772E+05   1.45509E+05  HDI003D-16-15-05CBC3

 OBS2BAS7 -- HEAD OBSERVATIONS, VERSION 2.0, 2/28/2006
 INPUT READ FROM UNIT   8
 # Tucson Update 1940-2011 Head Observation File
 # HOB Package with observed heads 1940-2011
 # Fall 2009 & Spring 2010 observations edited out

 NUMBER OF HEADS....................................: 8388
   NUMBER OF MULTILAYER HEADS.......................: 2556
   MAXIMUM NUMBER OF LAYERS FOR MULTILAYER HEADS....:    3
 HEAD OBSERVATIONS WILL BE SAVED ON UNIT............:   34
 SIMULATED EQUIVALENT HEAD AT DRY CELLS WILL BE:   -666.000    

 OBSERVED HEAD DATA -- TIME OFFSETS ARE MULTIPLIED BY:   1.0000    

                    REFER.
       OBSERVATION  STRESS    TIME
  OBS#    NAME      PERIOD   OFFSET    OBSERVATION
     1 3522-15-337      1    365.0       2965.    
 Observation within a steady-state time step has been moved to the end of the time step.
     2 3489-20-74       1    365.0       2968.    
 Observation within a steady-state time step has been moved to the end of the time step.
     3 3485-19-34       1    365.0       2966.    
 Observation within a steady-state time step has been moved to the end of the time step.
     4 3465-20-300      1    365.0       2968.    
 Observation within a steady-state time step has been moved to the end of the time step.
     5 3415-15-154      1    365.0       2955.    
 Observation within a steady-state time step has been moved to the end of the time step.
     6 3314-43-7        1    365.0       2830.    
 Observation within a steady-state time step has been moved to the end of the time step.
     7 3241-5-82        1    365.0       2709.    
 Observation within a steady-state time step has been moved to the end of the time step.
     8 3384-7-41        7    41.00       1626.    
     9 3384-12-10      12    10.00       1613.    
    10 3384-16-340     16    340.0       1572.    
    11 3384-21-335     21    335.0       1549.    
    12 3384-27-13      27    13.00       1531.    
    13 3384-32-5       32    5.000       1517.    
    14 3384-36-349     36    349.0       1499.    
    15 3400-55-321     55    321.0       1558.    
    16 3400-60-312     60    312.0       1568.    
    17 3400-65-363     65    363.0       1583.    
    18 3400-71-349     71    349.0       1600.    
    19 3401-55-321     55    321.0       1613.    
    20 3401-60-312     60    312.0       1621.    
    21 3401-65-363     65    363.0       1631.    
    22 3401-71-349     71    349.0       1650.    
    23 3397-11-313     11    313.0       1674.    
    24 3361-21-339     21    339.0       1555.    
    25 3361-32-5       32    5.000       1524.    
    26 3346-16-340     16    340.0       1573.    
    27 3346-21-339     21    339.0       1537.    
    28 3346-32-5       32    5.000       1495.    
    29 3346-37-349     37    349.0       1474.    
    30 3346-49-54      49    54.00       1506.    
    31 3346-60-319     60    319.0       1517.    
    32 3346-65-298     65    298.0       1529.    
    33 3346-71-13      71    13.00       1544.    
    34 3376-6-41        6    41.00       1665.    
    35 3376-12-46      12    46.00       1648.    
    36 3376-16-362     16    362.0       1635.    
    37 3376-21-336     21    336.0       1591.    
    38 3376-27-12      27    12.00       1561.    
    39 3376-38-1       38    1.000       1527.    
    40 3327-56-26      56    26.00       1579.    
    41 3327-66-18      66    18.00       1601.    
    42 3306-1-32        1    32.00       1688.    
 Observation within a steady-state time step has been moved to the end of the time step.
    43 3299-38-41      38    41.00       1546.    
    44 3311-15-337     15    337.0       2982.    
    45 3313-32-7       32    7.000       1579.    
    46 3313-38-1       38    1.000       1560.    
    47 3313-56-26      56    26.00       1601.    
    48 3313-66-18      66    18.00       1626.    
    49 3303-56-26      56    26.00       1600.    
    50 3303-66-18      66    18.00       1624.    
    51 3302-12-32      12    32.00       1680.    
    52 3302-56-26      56    26.00       1606.    
    53 3302-66-18      66    18.00       1633.    
    54 3320-2-305       2    305.0       1680.    
    55 3324-26-339     26    339.0       1550.    
    56 3312-16-335     16    335.0       1604.    
    57 3312-21-335     21    335.0       1576.    
    58 3312-32-1       32    1.000       1537.    
    59 3312-36-51      36    51.00       1523.    
    60 3294-1-60        1    60.00       1692.    
 Observation within a steady-state time step has been moved to the end of the time step.
    61 3291-16-362     16    362.0       1650.    
    62 3288-12-32      12    32.00       1671.    
    63 3288-21-335     21    335.0       1622.    
    64 3288-32-7       32    7.000       1602.    
    65 3282-21-336     21    336.0       1628.    
    66 3282-32-7       32    7.000       1604.    
    67 3282-38-10      38    10.00       1584.    
    68 3285-5-179       5    179.0       1699.    
    69 3285-11-25      11    25.00       1690.    
    70 3285-16-341     16    341.0       1666.    
    71 3285-21-336     21    336.0       1639.    
    72 3279-12-39      12    39.00       1679.    
    73 3279-16-362     16    362.0       1650.    
    74 3279-21-341     21    341.0       1639.    
    75 3279-27-28      27    28.00       1624.    
    76 3281-21-336     21    336.0       1635.    
    77 3281-37-350     37    350.0       1573.    
    78 3268-21-274     21    274.0       1652.    
    79 3268-38-6       38    6.000       1576.    
    80 3259-16-348     16    348.0       1684.    
     MULTIPLE LAYERS AND PROPORTIONS :    1, 0.19       2, 0.69       3, 0.12
    81 3259-32-7       32    7.000       1619.    
     MULTIPLE LAYERS AND PROPORTIONS :    2, 0.69       3, 0.31
    82 3259-36-350     36    350.0       1606.    
     MULTIPLE LAYERS AND PROPORTIONS :    2, 0.88       3, 0.12
    83 3237-1-365       1    365.0       1723.    
 Observation within a steady-state time step has been moved to the end of the time step.
    84 3237-3-355       3    355.0       1721.    
    85 3237-12-59      12    59.00       1713.    
    86 3234-6-284       6    284.0       1719.    
    87 3234-12-32      12    32.00       1710.    
    88 3234-16-348     16    348.0       1689.    
    89 3231-21-341     21    341.0       1661.    
     MULTIPLE LAYERS AND PROPORTIONS :    2, 0.28       3, 0.72
    90 3231-27-12      27    12.00       1642.    
     MULTIPLE LAYERS AND PROPORTIONS :    2, 0.28       3, 0.72
    91 3231-38-3       38    3.000       1595.    
     MULTIPLE LAYERS AND PROPORTIONS :    2, 0.28       3, 0.72
    92 3382-48-363     48    363.0       1604.    
    93 3383-48-363     48    363.0       1619.    
    94 3363-56-23      56    23.00       1632.    
    95 3363-66-18      66    18.00       1646.    
    96 3364-11-342     11    342.0       1694.    
     MULTIPLE LAYERS AND PROPORTIONS :    1, 0.15       2, 0.85
    97 3364-16-362     16    362.0       1671.    
     MULTIPLE LAYERS AND PROPORTIONS :    1, 0.15       2, 0.85
    98 3364-21-341     21    341.0       1646.    
     MULTIPLE LAYERS AND PROPORTIONS :    1, 0.15       2, 0.85
    99 3364-27-28      27    28.00       1639.    
   100 3364-32-4       32    4.000       1621.    
   101 3364-36-349     36    349.0       1617.    
   102 3364-43-19      43    19.00       1616.    
   103 3364-49-54      49    54.00       1622.    
   104 3364-56-25      56    25.00       1626.    
   105 3364-60-319     60    319.0       1628.    
   106 3364-65-298     65    298.0       1635.    
     MULTIPLE LAYERS AND PROPORTIONS :    1, 0.15       2, 0.85
   107 3364-71-13      71    13.00       1648.    
     MULTIPLE LAYERS AND PROPORTIONS :    1, 0.15       2, 0.85
   108 3364-71-365     71    365.0       1652.    
     MULTIPLE LAYERS AND PROPORTIONS :    1, 0.15       2, 0.85
   109 3370-56-25      56    25.00       1623.    
   110 3370-61-72      61    72.00       1628.    
   111 3370-66-18      66    18.00       1637.    
   112 3353-21-335     21    335.0       1659.    
   113 3353-27-12      27    12.00       1646.    
   114 3353-56-25      56    25.00       1627.    
   115 3353-66-18      66    18.00       1635.    
   116 3351-56-25      56    25.00       1628.    
   117 3351-61-72      61    72.00       1629.    
   118 3351-66-18      66    18.00       1639.    
   119 3310-56-23      56    23.00       1643.    
   120 3307-56-23      56    23.00       1644.    
   121 3307-61-73      61    73.00       1649.    
   122 3307-66-20      66    20.00       1676.    
   123 3292-56-25      56    25.00       1630.    
     MULTIPLE LAYERS AND PROPORTIONS :    2, 0.35       3, 0.65
   124 3292-61-73      61    73.00       1638.    
     MULTIPLE LAYERS AND PROPORTIONS :    2, 0.35       3, 0.65
   125 3292-66-19      66    19.00       1663.    
     MULTIPLE LAYERS AND PROPORTIONS :    2, 0.35       3, 0.65
   126 3278-11-296     11    296.0       1706.    
   127 3278-16-343     16    343.0       1693.    
   128 3278-21-340     21    340.0       1664.    
   129 3278-27-12      27    12.00       1658.    
   130 3278-32-4       32    4.000       1650.    
   131 3278-36-350     36    350.0       1648.    
   132 3278-43-19      43    19.00       1650.    
   133 3278-49-54      49    54.00       1656.    
   134 3278-56-25      56    25.00       1656.    
   135 3278-60-319     60    319.0       1660.    
   136 3278-65-301     65    301.0       1670.    
   137 3278-71-13      71    13.00       1684.    
   138 3278-71-365     71    365.0       1686.    
   139 3290-56-25      56    25.00       1638.    
     MULTIPLE LAYERS AND PROPORTIONS :    2, 0.84       3, 0.16
   140 3290-61-73      61    73.00       1647.    
     MULTIPLE LAYERS AND PROPORTIONS :    2, 0.84       3, 0.16
   141 3290-66-19      66    19.00       1671.    
     MULTIPLE LAYERS AND PROPORTIONS :    2, 0.84       3, 0.16
   142 3250-12-32      12    32.00       1737.    
   143 3250-16-363     16    363.0       1711.    
   144 3250-21-335     21    335.0       1688.    
   145 3250-32-7       32    7.000       1652.    
   146 3250-36-352     36    352.0       1632.    
   147 3308-56-25      56    25.00       1672.    
     MULTIPLE LAYERS AND PROPORTIONS :    2, 0.78       3, 0.22
   148 3308-61-73      61    73.00       1673.    
     MULTIPLE LAYERS AND PROPORTIONS :    2, 0.78       3, 0.22
   149 3308-66-20      66    20.00       1698.    
     MULTIPLE LAYERS AND PROPORTIONS :    2, 0.78       3, 0.22
   150 3249-16-363     16    363.0       1709.    
   151 3249-21-340     21    340.0       1688.    
   152 3249-36-352     36    352.0       1660.    
   153 3249-56-25      56    25.00       1688.    
   154 3249-61-73      61    73.00       1698.    
   155 3233-3-355       3    355.0       1744.    
   156 3233-6-341       6    341.0       1743.    
   157 3233-12-59      12    59.00       1737.    
   158 3233-16-311     16    311.0       1725.    
   159 3230-16-348     16    348.0       1722.    
     MULTIPLE LAYERS AND PROPORTIONS :    1, 0.45       2, 0.55
   160 3230-21-340     21    340.0       1705.    
     MULTIPLE LAYERS AND PROPORTIONS :    1, 0.45       2, 0.55
   161 3230-27-1       27    1.000       1694.    
     MULTIPLE LAYERS AND PROPORTIONS :    1, 0.45       2, 0.55
   162 3230-32-7       32    7.000       1702.    
     MULTIPLE LAYERS AND PROPORTIONS :    1, 0.45       2, 0.55
   163 3230-36-352     36    352.0       1682.    
   164 3230-56-25      56    25.00       1711.    
   165 3230-61-72      61    72.00       1716.    
   166 3229-17-4       17    4.000       1729.    
     MULTIPLE LAYERS AND PROPORTIONS :    1, 0.89       2, 0.11
   167 3247-61-73      61    73.00       1711.    
   168 3247-66-20      66    20.00       1715.    
   169 3368-56-25      56    25.00       1668.    
   170 3333-12-10      12    10.00       1744.    
   171 3333-16-343     16    343.0       1741.    
   172 3333-32-85      32    85.00       1693.    
   173 3333-35-53      35    53.00       1685.    
   174 3332-49-54      49    54.00       1671.    
   175 3332-56-26      56    26.00       1674.    
   176 3332-60-319     60    319.0       1679.    
   177 3332-65-298     65    298.0       1687.    
   178 3332-71-13      71    13.00       1699.    
   179 3332-71-365     71    365.0       1701.    
   180 3330-56-25      56    25.00       1659.    
   181 3315-48-300     48    300.0       1659.    
   182 3315-55-321     55    321.0       1664.    
   183 3315-60-312     60    312.0       1666.    
   184 3315-65-363     65    363.0       1676.    
   185 3315-71-351     71    351.0       1691.    
   186 3316-48-300     48    300.0       1658.    
   187 3316-55-321     55    321.0       1663.    
   188 3316-60-312     60    312.0       1666.    
   189 3316-65-363     65    363.0       1677.    
   190 3316-71-351     71    351.0       1692.    
   191 3284-56-25      56    25.00       1689.    
   192 3275-38-12      38    12.00       1709.    
   193 3287-38-24      38    24.00       1676.    
   194 3265-48-364     48    300.0       1671.    
   195 3265-56-25      56    25.00       1676.    
     MULTIPLE LAYERS AND PROPORTIONS :    2, 0.47       3, 0.53
   196 3228-56-20      56    20.00       1682.    
     MULTIPLE LAYERS AND PROPORTIONS :    1, 0.16       2, 0.84
   197 3228-61-73      61    73.00       1697.    
     MULTIPLE LAYERS AND PROPORTIONS :    1, 0.16       2, 0.84
   198 3228-66-19      66    19.00       1727.    
     MULTIPLE LAYERS AND PROPORTIONS :    1, 0.16       2, 0.84
   199 3347-20-74      20    74.00       2968.    
   200 3347-26-157     37    33.00       2967.    
   201 3347-37-33      37    33.00       2963.    
   202 3347-43-82      43    82.00       2967.    
   203 3347-48-336     48    336.0       2971.    
   204 3347-56-23      56    23.00       2969.    
   205 3347-61-62      61    62.00       2971.    
   206 3347-65-299     65    299.0       2969.    
   207 3347-71-12      71    12.00       2966.    
   208 3347-71-365     71    365.0       2966.    
   209 3378-15-337     15    337.0       2965.    
   210 3378-26-127     26    112.0       2971.    
   211 3378-33-312     33    312.0       2954.    
   212 3378-43-82      43    82.00       2971.    
   213 3378-48-337     48    337.0       2976.    
   214 3378-56-23      56    23.00       2976.    
   215 3378-61-62      61    62.00       2976.    
   216 3378-66-18      66    18.00       2972.    
   217 3336-71-63      71    63.00       2981.    
   218 3343-19-34      19    34.00       2966.    
   219 3343-26-121     26    121.0       2966.    
   220 3343-33-311     33    311.0       2952.    
   221 3343-43-82      43    82.00       2975.    
   222 3343-48-336     48    336.0       2978.    
   223 3343-56-25      56    25.00       2977.    
   224 3343-61-62      61    62.00       2975.    
   225 3343-66-24      66    24.00       2971.    
   226 3343-71-63      71    63.00       2963.    
   227 3322-20-300     20    300.0       2968.    
   228 3322-26-127     26    127.0       2967.    
   229 3322-48-337     48    337.0       2973.    
   230 3322-56-25      56    25.00       2963.    
   231 3322-61-60      61    60.00       2964.    
   232 3317-43-85      43    85.00       2959.    
   233 3317-56-25      56    25.00       2964.    
   234 3317-61-60      61    60.00       2961.    
   235 3317-66-27      66    27.00       2959.    
   236 3317-71-64      71    64.00       2962.    
   237 3300-56-26      56    26.00       2995.    
   238 3289-56-26      56    26.00       3009.    
   239 3289-61-65      61    65.00       2998.    
   240 3276-56-26      56    26.00       3018.    
   241 3270-56-26      56    26.00       2964.    
   242 3272-15-154     15    154.0       2955.    
   243 3272-26-125     26    125.0       2957.    
   244 3272-37-36      37    36.00       2947.    
   245 3272-43-27      43    27.00       2962.    
   246 3272-48-336     48    336.0       2970.    
   247 3272-56-26      56    26.00       2966.    
   248 3272-61-60      61    60.00       2962.    
   249 3272-71-12      71    12.00       2947.    
   250 3266-56-26      56    26.00       2956.    
   251 3260-33-313     33    313.0       3027.    
   252 3260-48-334     48    334.0       3050.    
   253 3260-56-26      56    26.00       3044.    
   254 3222-38-6       38    6.000       1714.    
   255 3213-12-324     12    324.0       1725.    
   256 3213-16-335     16    335.0       1716.    
   257 3213-21-335     21    335.0       1699.    
   258 3213-32-7       32    7.000       1680.    
   259 3213-38-10      38    10.00       1660.    
   260 3213-56-19      56    19.00       1689.    
   261 3205-2-230       2    230.0       1730.    
     MULTIPLE LAYERS AND PROPORTIONS :    1, 0.18       2, 0.82
   262 3205-22-37      22    37.00       1683.    
     MULTIPLE LAYERS AND PROPORTIONS :    1, 0.18       2, 0.82
   263 3191-2-188       2    188.0       1745.    
   264 3178-17-4       17    4.000       1713.    
   265 3178-22-37      22    37.00       1688.    
   266 3178-32-85      32    85.00       1649.    
   267 3178-36-65      36    65.00       1610.    
   268 3178-42-349     42    349.0       1623.    
   269 3178-48-341     48    341.0       1643.    
   270 3178-56-23      56    23.00       1655.    
   271 3178-60-319     60    319.0       1671.    
   272 3177-17-4       17    4.000       1713.    
     MULTIPLE LAYERS AND PROPORTIONS :    1, 0.18       2, 0.82
   273 3176-11-297     11    297.0       1743.    
     MULTIPLE LAYERS AND PROPORTIONS :    1, 0.31       2, 0.69
   274 3176-16-342     16    342.0       1718.    
     MULTIPLE LAYERS AND PROPORTIONS :    1, 0.31       2, 0.69
   275 3176-21-342     21    342.0       1691.    
     MULTIPLE LAYERS AND PROPORTIONS :    1, 0.31       2, 0.69
   276 3176-32-7       32    7.000       1633.    
   277 3176-34-339     34    339.0       1628.    
   278 3174-21-335     21    335.0       1695.    
   279 3174-56-19      56    19.00       1680.    
   280 3174-61-60      61    60.00       1690.    
   281 3174-66-24      66    24.00       1723.    
   282 3188-2-335       2    335.0       1755.    
   283 3188-6-341       6    341.0       1754.    
   284 3188-10-350     10    350.0       1750.    
   285 3199-38-6       38    6.000       1636.    
     MULTIPLE LAYERS AND PROPORTIONS :    2, 0.82       3, 0.18
   286 3199-48-337     48    337.0       1674.    
     MULTIPLE LAYERS AND PROPORTIONS :    2, 0.82       3, 0.18
   287 3199-61-60      61    60.00       1705.    
     MULTIPLE LAYERS AND PROPORTIONS :    2, 0.82       3, 0.18
   288 3175-48-337     48    337.0       1664.    
   289 3175-56-19      56    19.00       1686.    
   290 3175-66-24      66    24.00       1729.    
   291 3196-56-19      56    19.00       1688.    
   292 3171-21-335     21    335.0       1716.    
   293 3171-26-313     26    313.0       1672.    
   294 3171-48-337     48    337.0       1698.    
   295 3173-48-337     48    337.0       1672.    
   296 3173-56-19      56    19.00       1692.    
   297 3173-61-60      61    60.00       1701.    
   298 3173-66-20      66    20.00       1730.    
   299 3172-56-19      56    19.00       1682.    
   300 3172-61-60      61    60.00       1691.    
   301 3172-66-24      66    24.00       1723.    
   302 3163-12-91      12    91.00       1748.    
   303 3163-21-335     21    335.0       1701.    
   304 3197-42-351     42    351.0       1684.    
     MULTIPLE LAYERS AND PROPORTIONS :    2, 0.43       3, 0.57
   305 3197-48-348     48    348.0       1700.    
     MULTIPLE LAYERS AND PROPORTIONS :    2, 0.43       3, 0.57
   306 3197-56-4       56    4.000       1699.    
     MULTIPLE LAYERS AND PROPORTIONS :    2, 0.43       3, 0.57
   307 3197-61-5       61    5.000       1719.    
     MULTIPLE LAYERS AND PROPORTIONS :    2, 0.43       3, 0.57
   308 3197-65-361     65    361.0       1745.    
     MULTIPLE LAYERS AND PROPORTIONS :    2, 0.43       3, 0.57
   309 3197-71-355     71    355.0       1748.    
     MULTIPLE LAYERS AND PROPORTIONS :    2, 0.43       3, 0.57
   310 3170-16-348     16    348.0       1732.    
     MULTIPLE LAYERS AND PROPORTIONS :    1, 0.13       2, 0.87
   311 3170-21-342     21    342.0       1703.    
   312 3170-38-6       38    6.000       1681.    
   313 3170-42-351     42    351.0       1737.    
   314 3170-48-348     48    348.0       1694.    
   315 3170-55-354     55    354.0       1703.    
   316 3170-61-5       61    5.000       1725.    
   317 3170-65-361     65    361.0       1751.    
   318 3170-71-355     71    355.0       1754.    
   319 3139-21-343     21    343.0       1698.    
   320 3139-71-355     71    355.0       1747.    
   321 3143-17-5       17    5.000       1732.    
   322 3143-22-37      22    37.00       1708.    
   323 3143-27-31      27    31.00       1695.    
   324 3143-55-354     55    354.0       1694.    
   325 3143-61-5       61    5.000       1720.    
   326 3143-65-361     65    361.0       1757.    
   327 3143-71-355     71    355.0       1760.    
   328 3166-1-1         1    1.000       1748.    
 Observation within a steady-state time step has been moved to the end of the time step.
     MULTIPLE LAYERS AND PROPORTIONS :    2, 0.54       3, 0.46
   329 3166-11-335     11    335.0       1738.    
     MULTIPLE LAYERS AND PROPORTIONS :    2, 0.54       3, 0.46
   330 3166-21-335     21    335.0       1680.    
     MULTIPLE LAYERS AND PROPORTIONS :    2, 0.54       3, 0.46
   331 3100-16-338     16    338.0       1730.    
   332 3100-21-335     21    335.0       1703.    
     MULTIPLE LAYERS AND PROPORTIONS :    2, 0.76       3, 0.24
   333 3100-43-60      43    60.00       1625.    
   334 3100-55-354     55    354.0       1652.    
   335 3100-61-5       61    5.000       1659.    
     MULTIPLE LAYERS AND PROPORTIONS :    2, 0.76       3, 0.24
   336 3100-66-20      66    20.00       1692.    
     MULTIPLE LAYERS AND PROPORTIONS :    2, 0.76       3, 0.24
   337 3100-71-355     71    355.0       1709.    
     MULTIPLE LAYERS AND PROPORTIONS :    2, 0.76       3, 0.24
   338 2939-42-351     42    351.0       1635.    
   339 2939-61-5       61    5.000       1669.    
   340 2939-70-352     70    352.0       1725.    
   341 2939-71-355     71    355.0       1727.    
   342 3099-21-335     21    335.0       1697.    
     MULTIPLE LAYERS AND PROPORTIONS :    2, 0.38       3, 0.62
   343 3099-61-5       61    5.000       1665.    
     MULTIPLE LAYERS AND PROPORTIONS :    2, 0.38       3, 0.62
   344 3099-66-20      66    20.00       1698.    
     MULTIPLE LAYERS AND PROPORTIONS :    2, 0.38       3, 0.62
   345 3099-71-355     71    355.0       1723.    
     MULTIPLE LAYERS AND PROPORTIONS :    2, 0.38       3, 0.62
   346 3113-1-59        1    59.00       1773.    
 Observation within a steady-state time step has been moved to the end of the time step.
   347 3113-6-341       6    341.0       1768.    
   348 3113-12-362     12    362.0       1752.    
   349 3113-22-37      22    37.00       1703.    
   350 3113-27-31      27    31.00       1697.    
   351 3113-37-341     37    341.0       1653.    
   352 3113-42-349     42    349.0       1684.    
   353 3113-48-341     48    341.0       1664.    
   354 3113-55-354     55    354.0       1694.    
   355 3113-60-319     60    319.0       1716.    
   356 3113-65-298     65    298.0       1744.    
   357 3113-71-355     71    355.0       1757.    
   358 3097-12-170     12    170.0       1744.    
   359 3097-17-5       17    5.000       1723.    
   360 3097-42-351     42    351.0       1664.    
   361 3097-48-348     48    348.0       1679.    
   362 3097-55-354     55    354.0       1696.    
   363 3097-61-5       61    5.000       1718.    
   364 3097-65-361     65    361.0       1750.    
   365 3097-71-355     71    355.0       1760.    
   366 3095-42-351     42    351.0       1666.    
   367 3095-48-348     48    348.0       1682.    
   368 3095-55-354     55    354.0       1698.    
   369 3095-61-5       61    5.000       1720.    
   370 3095-65-361     65    361.0       1752.    
   371 3095-71-355     71    355.0       1761.    
   372 3096-8-283       8    283.0       1773.    
     MULTIPLE LAYERS AND PROPORTIONS :    1, 0.20       2, 0.80
   373 3096-17-5       17    5.000       1736.    
     MULTIPLE LAYERS AND PROPORTIONS :    1, 0.20       2, 0.80
   374 3096-21-335     21    335.0       1708.    
   375 3135-8-282       8    282.0       1775.    
     MULTIPLE LAYERS AND PROPORTIONS :    1, 0.11       2, 0.89
   376 3135-11-355     11    355.0       1766.    
     MULTIPLE LAYERS AND PROPORTIONS :    1, 0.11       2, 0.89
   377 3135-16-349     16    349.0       1739.    
     MULTIPLE LAYERS AND PROPORTIONS :    1, 0.11       2, 0.89
   378 3135-21-312     21    312.0       1708.    
   379 3135-26-292     26    292.0       1680.    
   380 3135-38-5       38    5.000       1641.    
   381 3135-48-337     48    337.0       1678.    
   382 3135-56-19      56    19.00       1700.    
   383 3135-61-60      61    60.00       1717.    
   384 3121-55-354     55    354.0       1713.    
   385 3121-61-5       61    5.000       1724.    
   386 3121-66-20      66    20.00       1760.    
   387 3121-71-365     71    365.0       1772.    
   388 3059-10-57      10    57.00       1779.    
   389 3059-17-5       17    5.000       1744.    
   390 3059-27-31      27    31.00       1693.    
   391 3059-37-33      37    33.00       1717.    
   392 3059-42-349     42    349.0       1681.    
   393 3059-48-342     48    342.0       1700.    
   394 3059-56-20      56    20.00       1720.    
   395 3059-60-319     60    319.0       1742.    
   396 3059-65-301     65    301.0       1777.    
   397 3059-71-365     71    365.0       1787.    
   398 3078-21-335     21    335.0       1709.    
   399 3080-11-297     11    297.0       1762.    
     MULTIPLE LAYERS AND PROPORTIONS :    1, 0.12       2, 0.88
   400 3075-56-20      56    20.00       1716.    
   401 3089-2-339       2    339.0       1774.    
   402 3089-6-341       6    341.0       1772.    
   403 3089-12-362     12    362.0       1763.    
   404 3089-16-313     16    313.0       1745.    
   405 3089-42-351     42    351.0       1693.    
   406 3089-65-361     65    361.0       1743.    
   407 3089-71-355     71    355.0       1755.    
   408 3053-11-297     11    297.0       1767.    
   409 3053-16-349     16    349.0       1741.    
   410 3053-22-37      22    37.00       1710.    
   411 3053-32-85      32    85.00       1668.    
   412 3053-42-351     42    351.0       1660.    
   413 3053-48-348     48    348.0       1676.    
   414 3053-55-353     55    353.0       1689.    
   415 3053-61-5       61    5.000       1706.    
   416 3053-65-361     65    361.0       1735.    
   417 3053-71-355     71    355.0       1752.    
   418 3050-55-353     55    353.0       1689.    
   419 3050-61-5       61    5.000       1706.    
   420 3050-65-361     65    361.0       1735.    
   421 3050-71-355     71    355.0       1752.    
   422 3076-37-33      37    33.00       1618.    
   423 3076-42-349     42    349.0       1656.    
   424 3076-48-342     48    342.0       1676.    
   425 3076-56-23      56    23.00       1695.    
   426 3076-61-60      61    60.00       1701.    
   427 3076-66-24      66    24.00       1742.    
   428 3077-55-354     55    354.0       1659.    
   429 3077-61-5       61    5.000       1665.    
   430 3077-66-20      66    20.00       1690.    
   431 3077-71-355     71    355.0       1718.    
   432 3065-48-348     48    348.0       1663.    
     MULTIPLE LAYERS AND PROPORTIONS :    2, 0.27       3, 0.73
   433 3021-1-107       1    107.0       1784.    
 Observation within a steady-state time step has been moved to the end of the time step.
   434 3021-7-3         7    3.000       1782.    
   435 3020-7-3         7    3.000       1781.    
   436 3020-12-59      12    59.00       1775.    
   437 3020-16-314     16    314.0       1755.    
   438 3020-22-37      22    37.00       1731.    
   439 3020-27-31      27    31.00       1697.    
   440 2989-12-59      12    59.00       1780.    
   441 2995-16-313     16    313.0       1748.    
   442 2995-22-37      22    37.00       1734.    
   443 2995-27-31      27    31.00       1719.    
   444 2995-32-85      32    85.00       1723.    
   445 3201-48-300     48    300.0       1676.    
   446 3201-55-321     55    321.0       1685.    
   447 3201-60-312     60    312.0       1692.    
   448 3201-65-363     65    363.0       1706.    
   449 3201-71-10      71    10.00       1726.    
   450 3202-48-300     48    300.0       1678.    
   451 3202-55-321     55    321.0       1687.    
   452 3202-60-312     60    312.0       1696.    
   453 3202-65-363     65    363.0       1720.    
   454 3202-71-10      71    10.00       1745.    
   455 3200-21-335     21    335.0       1763.    
   456 3200-32-6       32    6.000       1728.    
   457 3200-36-351     36    351.0       1712.    
   458 3200-49-54      49    54.00       1695.    
   459 3200-56-24      56    24.00       1699.    
   460 3200-60-319     60    319.0       1706.    
   461 3200-65-298     65    298.0       1718.    
   462 3200-71-365     71    365.0       1736.    
   463 3154-1-337       1    337.0       1791.    
 Observation within a steady-state time step has been moved to the end of the time step.
     MULTIPLE LAYERS AND PROPORTIONS :    1, 0.12       2, 0.88
   464 3154-6-286       6    286.0       1782.    
     MULTIPLE LAYERS AND PROPORTIONS :    1, 0.12       2, 0.88
   465 3154-11-298     11    298.0       1778.    
     MULTIPLE LAYERS AND PROPORTIONS :    1, 0.12       2, 0.88
   466 3154-16-358     16    358.0       1742.    
     MULTIPLE LAYERS AND PROPORTIONS :    1, 0.12       2, 0.88
   467 3154-21-343     21    343.0       1712.    
   468 3154-32-85      32    85.00       1660.    
   469 3154-37-33      37    33.00       1649.    
   470 3154-42-349     42    349.0       1651.    
   471 3150-48-337     48    337.0       1681.    
   472 3150-56-23      56    23.00       1704.    
   473 3150-60-319     60    319.0       1720.    
   474 3150-65-298     65    298.0       1752.    
   475 3150-71-11      71    11.00       1775.    
   476 3150-71-365     71    365.0       1776.    
   477 3158-12-85      12    85.00       1766.    
   478 3158-16-342     16    342.0       1740.    
   479 3158-21-346     21    346.0       1712.    
   480 3158-56-25      56    25.00       1700.    
   481 3158-61-55      61    55.00       1720.    
   482 3158-66-19      66    19.00       1753.    
   483 3179-8-1         8    1.000       1777.    
     MULTIPLE LAYERS AND PROPORTIONS :    1, 0.12       2, 0.88
   484 3151-12-33      12    33.00       1773.    
   485 3151-16-342     16    342.0       1740.    
   486 3151-21-346     21    346.0       1717.    
   487 3151-56-23      56    23.00       1705.    
   488 3151-61-55      61    55.00       1725.    
   489 3151-66-18      66    18.00       1758.    
   490 3167-34-152     34    152.0       1703.    
   491 3103-38-3       38    3.000       1652.    
   492 3101-66-24      66    24.00       1760.    
     MULTIPLE LAYERS AND PROPORTIONS :    2, 0.76       3, 0.24
   493 3105-8-1         8    1.000       1789.    
     MULTIPLE LAYERS AND PROPORTIONS :    1, 0.19       2, 0.81
   494 3105-56-23      56    23.00       1710.    
   495 3105-61-55      61    55.00       1731.    
   496 3105-66-18      66    18.00       1767.    
   497 3142-12-1       12    1.000       1778.    
     MULTIPLE LAYERS AND PROPORTIONS :    1, 0.43       2, 0.57
   498 3142-16-342     16    342.0       1744.    
     MULTIPLE LAYERS AND PROPORTIONS :    1, 0.43       2, 0.57
   499 3142-56-24      56    24.00       1707.    
   500 3142-61-55      61    55.00       1726.    
   501 3142-66-19      66    19.00       1759.    
   502 3138-21-346     21    346.0       1718.    
   503 3138-56-24      56    24.00       1708.    
   504 3138-61-55      61    55.00       1727.    
   505 3138-66-19      66    19.00       1760.    
   506 3119-48-337     48    337.0       1687.    
   507 3119-56-23      56    23.00       1712.    
   508 3119-61-60      61    60.00       1732.    
   509 3119-66-18      66    18.00       1768.    
   510 3130-2-305       2    305.0       1828.    
   511 3108-8-32        8    32.00       1790.    
     MULTIPLE LAYERS AND PROPORTIONS :    1, 0.45       2, 0.55
   512 3104-56-26      56    26.00       1723.    
   513 3104-61-55      61    55.00       1744.    
   514 3104-66-19      66    19.00       1777.    
   515 3102-56-26      56    26.00       1724.    
     MULTIPLE LAYERS AND PROPORTIONS :    2, 0.93       3, 0.07
   516 3102-61-55      61    55.00       1744.    
     MULTIPLE LAYERS AND PROPORTIONS :    2, 0.93       3, 0.07
   517 3102-66-19      66    19.00       1776.    
     MULTIPLE LAYERS AND PROPORTIONS :    2, 0.93       3, 0.07
   518 3140-48-300     48    300.0       1690.    
   519 3141-48-300     48    300.0       1693.    
   520 3061-66-19      66    19.00       1799.    
     MULTIPLE LAYERS AND PROPORTIONS :    2, 0.66       3, 0.34
   521 3085-1-337       1    337.0       1814.    
 Observation within a steady-state time step has been moved to the end of the time step.
     MULTIPLE LAYERS AND PROPORTIONS :    1, 0.27       2, 0.57       3, 0.16
   522 3085-6-286       6    286.0       1805.    
     MULTIPLE LAYERS AND PROPORTIONS :    1, 0.27       2, 0.57       3, 0.16
   523 3085-11-361     11    361.0       1794.    
     MULTIPLE LAYERS AND PROPORTIONS :    1, 0.27       2, 0.57       3, 0.16
   524 3085-16-350     16    350.0       1764.    
     MULTIPLE LAYERS AND PROPORTIONS :    1, 0.27       2, 0.57       3, 0.16
   525 3085-21-346     21    346.0       1739.    
     MULTIPLE LAYERS AND PROPORTIONS :    2, 0.84       3, 0.16
   526 3064-56-25      56    25.00       1746.    
   527 3083-56-23      56    23.00       1725.    
     MULTIPLE LAYERS AND PROPORTIONS :    2, 0.60       3, 0.40
   528 3083-61-55      61    55.00       1747.    
     MULTIPLE LAYERS AND PROPORTIONS :    2, 0.60       3, 0.40
   529 3083-66-18      66    18.00       1785.    
     MULTIPLE LAYERS AND PROPORTIONS :    2, 0.60       3, 0.40
   530 3084-10-60      10    60.00       1787.    
     MULTIPLE LAYERS AND PROPORTIONS :    1, 0.15       2, 0.85
   531 3084-48-341     48    341.0       1690.    
   532 3084-56-23      56    23.00       1716.    
   533 3084-61-55      61    55.00       1737.    
   534 3084-66-18      66    18.00       1775.    
   535 3081-48-341     48    341.0       1690.    
   536 3081-56-23      56    23.00       1714.    
   537 3081-61-55      61    55.00       1736.    
   538 3081-66-18      66    18.00       1774.    
   539 3079-1-365       1    365.0       1791.    
 Observation within a steady-state time step has been moved to the end of the time step.
   540 3058-48-337     48    337.0       1697.    
   541 3058-56-23      56    23.00       1722.    
   542 3058-61-55      61    55.00       1745.    
   543 3058-66-18      66    18.00       1782.    
   544 3086-12-247     12    247.0       1778.    
     MULTIPLE LAYERS AND PROPORTIONS :    1, 0.43       2, 0.57
   545 3107-1-365       1    365.0       1784.    
 Observation within a steady-state time step has been moved to the end of the time step.
   546 3107-11-334     11    334.0       1774.    
   547 3040-10-32      10    32.00       1777.    
   548 3017-71-5       71    5.000       1785.    
   549 3017-71-365     71    365.0       1787.    
   550 3015-55-354     55    354.0       1715.    
   551 3015-71-5       71    5.000       1790.    
   552 3015-71-365     71    365.0       1792.    
   553 3054-10-32      10    32.00       1780.    
   554 3046-12-247     12    247.0       1759.    
   555 3046-16-350     16    350.0       1748.    
   556 3046-21-343     21    343.0       1714.    
   557 3046-32-8       32    8.000       1684.    
   558 3046-36-87      36    87.00       1671.    
   559 3036-11-18      11    18.00       1788.    
     MULTIPLE LAYERS AND PROPORTIONS :    1, 0.22       2, 0.78
   560 3036-16-350     16    350.0       1755.    
     MULTIPLE LAYERS AND PROPORTIONS :    1, 0.22       2, 0.78
   561 3036-21-335     21    335.0       1722.    
     MULTIPLE LAYERS AND PROPORTIONS :    1, 0.22       2, 0.78
   562 3030-12-247     12    247.0       1770.    
     MULTIPLE LAYERS AND PROPORTIONS :    1, 0.19       2, 0.81
   563 3030-16-350     16    350.0       1757.    
     MULTIPLE LAYERS AND PROPORTIONS :    1, 0.19       2, 0.81
   564 3030-21-346     21    346.0       1725.    
     MULTIPLE LAYERS AND PROPORTIONS :    1, 0.19       2, 0.81
   565 3038-1-337       1    337.0       1816.    
 Observation within a steady-state time step has been moved to the end of the time step.
     MULTIPLE LAYERS AND PROPORTIONS :    1, 0.19       2, 0.77       3, 0.04
   566 3038-6-286       6    286.0       1808.    
     MULTIPLE LAYERS AND PROPORTIONS :    1, 0.19       2, 0.77       3, 0.04
   567 3038-11-338     11    338.0       1796.    
     MULTIPLE LAYERS AND PROPORTIONS :    1, 0.19       2, 0.77       3, 0.04
   568 3038-16-350     16    350.0       1765.    
     MULTIPLE LAYERS AND PROPORTIONS :    1, 0.19       2, 0.77       3, 0.04
   569 3038-21-312     21    312.0       1732.    
     MULTIPLE LAYERS AND PROPORTIONS :    1, 0.19       2, 0.77       3, 0.04
   570 3038-42-349     42    349.0       1678.    
     MULTIPLE LAYERS AND PROPORTIONS :    1, 0.19       2, 0.77       3, 0.04
   571 3035-48-337     48    337.0       1709.    
     MULTIPLE LAYERS AND PROPORTIONS :    2, 0.33       3, 0.67
   572 3035-56-23      56    23.00       1737.    
     MULTIPLE LAYERS AND PROPORTIONS :    2, 0.33       3, 0.67
   573 3035-60-319     60    319.0       1755.    
     MULTIPLE LAYERS AND PROPORTIONS :    2, 0.33       3, 0.67
   574 3035-66-18      66    18.00       1790.    
     MULTIPLE LAYERS AND PROPORTIONS :    2, 0.33       3, 0.67
   575 3035-71-11      71    11.00       1802.    
     MULTIPLE LAYERS AND PROPORTIONS :    2, 0.33       3, 0.67
   576 3035-71-365     71    365.0       1804.    
     MULTIPLE LAYERS AND PROPORTIONS :    2, 0.33       3, 0.67
   577 3007-12-76      12    76.00       1799.    
     MULTIPLE LAYERS AND PROPORTIONS :    1, 0.16       2, 0.76       3, 0.08
   578 3007-48-337     48    337.0       1714.    
     MULTIPLE LAYERS AND PROPORTIONS :    2, 0.93       3, 0.07
   579 3007-56-23      56    23.00       1743.    
     MULTIPLE LAYERS AND PROPORTIONS :    2, 0.93       3, 0.07
   580 3007-61-55      61    55.00       1764.    
   581 3007-66-18      66    18.00       1797.    
   582 3032-10-32      10    32.00       1837.    
     MULTIPLE LAYERS AND PROPORTIONS :    1, 0.10       2, 0.36       3, 0.54
   583 3032-48-337     48    337.0       1721.    
     MULTIPLE LAYERS AND PROPORTIONS :    1, 0.10       2, 0.36       3, 0.54
   584 3032-56-23      56    23.00       1749.    
     MULTIPLE LAYERS AND PROPORTIONS :    1, 0.10       2, 0.36       3, 0.54
   585 3032-61-55      61    55.00       1769.    
     MULTIPLE LAYERS AND PROPORTIONS :    1, 0.10       2, 0.36       3, 0.54
   586 3032-66-27      66    27.00       1792.    
     MULTIPLE LAYERS AND PROPORTIONS :    1, 0.10       2, 0.36       3, 0.54
   587 3006-56-23      56    23.00       1745.    
   588 3006-61-55      61    55.00       1767.    
   589 3006-66-18      66    18.00       1801.    
   590 3005-10-60      10    60.00       1836.    
   591 3005-48-337     48    337.0       1770.    
   592 3005-56-23      56    23.00       1795.    
   593 3005-61-55      61    55.00       1805.    
   594 3005-66-18      66    18.00       1812.    
   595 3002-56-23      56    23.00       1794.    
   596 3002-61-55      61    55.00       1805.    
   597 3002-66-19      66    19.00       1810.    
   598 3182-48-337     48    337.0       1674.    
   599 3182-56-19      56    19.00       1692.    
   600 3182-61-60      61    60.00       1708.    
   601 3182-66-27      66    27.00       1739.    
   602 3155-8-1         8    1.000       1775.    
   603 3155-48-337     48    337.0       1676.    
   604 3155-56-19      56    19.00       1717.    
   605 3155-66-24      66    24.00       1748.    
   606 2695-43-60      43    60.00       1677.    
   607 2695-55-354     55    354.0       1712.    
   608 2695-61-7       61    7.000       1726.    
   609 2695-65-361     65    361.0       1770.    
   610 2695-71-5       71    5.000       1782.    
   611 2695-71-365     71    365.0       1784.    
   612 3037-48-364     48    364.0       1774.    
   613 3009-56-25      56    25.00       1908.    
   614 3009-61-55      61    55.00       1906.    
   615 3001-56-25      56    25.00       1910.    
   616 3001-61-55      61    55.00       1908.    
   617 3004-17-1       17    1.000       2018.    
   618 3004-22-1       22    1.000       2015.    
   619 3004-27-32      27    32.00       2001.    
   620 3004-37-36      37    36.00       2005.    
   621 3004-66-24      66    24.00       2001.    
   622 3004-71-57      71    57.00       1994.    
   623 3010-48-334     48    334.0       2113.    
   624 3010-56-27      56    27.00       2109.    
   625 3039-42-364     42    364.0       2228.    
   626 3039-48-335     48    335.0       2245.    
   627 3039-56-25      56    25.00       2227.    
   628 3019-31-297     31    297.0       2244.    
   629 2997-36-32      36    32.00       2229.    
   630 2997-43-41      43    41.00       2230.    
   631 2997-48-334     48    334.0       2229.    
   632 3012-31-339     31    339.0       2316.    
   633 3016-8-222       8    222.0       2284.    
   634 3016-11-53      11    53.00       2300.    
   635 3014-42-365     42    365.0       2297.    
   636 3014-48-334     48    334.0       2299.    
   637 3014-56-24      56    24.00       2299.    
   638 3014-61-59      61    59.00       2298.    
   639 3014-66-25      66    25.00       2291.    
   640 3014-71-54      71    54.00       2278.    
   641 3013-43-6       43    6.000       2316.    
   642 3013-48-335     48    335.0       2319.    
   643 3013-56-26      56    26.00       2319.    
   644 3013-66-28      66    28.00       2310.    
   645 3041-66-33      66    33.00       2468.    
   646 3041-71-61      71    61.00       2459.    
   647 3055-11-56      11    56.00       2467.    
   648 3055-43-6       43    6.000       2457.    
   649 3055-48-335     48    335.0       2469.    
   650 3055-56-19      56    19.00       2469.    
   651 3251-48-334     48    334.0       3019.    
   652 3246-56-26      56    26.00       2986.    
   653 3248-16-116     16    116.0       2955.    
   654 3248-21-116     21    116.0       2975.    
   655 3248-26-125     26    125.0       2959.    
   656 3248-31-111     31    111.0       2961.    
   657 3248-37-36      37    36.00       2957.    
   658 3248-43-81      43    81.00       2972.    
   659 3248-48-334     48    334.0       2988.    
   660 3248-56-26      56    26.00       2987.    
   661 3248-71-61      71    61.00       2965.    
   662 3242-56-26      56    26.00       2985.    
     MULTIPLE LAYERS AND PROPORTIONS :    2, 0.82       3, 0.18
   663 3241-61-61      61    61.00       2998.    
   664 3241-66-18      66    18.00       2981.    
   665 3241-71-61      71    61.00       3005.    
   666 3235-71-64      71    64.00       3012.    
   667 3221-66-33      66    33.00       2925.    
   668 3262-42-335     42    335.0       2939.    
   669 3262-49-8       49    8.000       2944.    
   670 3262-55-342     55    342.0       2943.    
   671 3262-61-35      61    35.00       2939.    
   672 3262-66-33      66    33.00       2931.    
   673 3262-71-323     71    323.0       2925.    
   674 3256-27-125     27    125.0       2931.    
     MULTIPLE LAYERS AND PROPORTIONS :    2, 0.47       3, 0.53
   675 3256-37-36      37    36.00       2916.    
     MULTIPLE LAYERS AND PROPORTIONS :    2, 0.47       3, 0.53
   676 3256-48-356     48    356.0       2938.    
     MULTIPLE LAYERS AND PROPORTIONS :    2, 0.47       3, 0.53
   677 3256-55-342     55    342.0       2934.    
     MULTIPLE LAYERS AND PROPORTIONS :    2, 0.47       3, 0.53
   678 3256-66-33      66    33.00       2926.    
     MULTIPLE LAYERS AND PROPORTIONS :    2, 0.47       3, 0.53
   679 3256-71-323     71    323.0       2917.    
     MULTIPLE LAYERS AND PROPORTIONS :    2, 0.47       3, 0.53
   680 3252-43-81      43    81.00       2932.    
   681 3252-48-336     48    336.0       2934.    
   682 3252-56-27      56    27.00       2930.    
   683 3252-60-323     60    323.0       2929.    
   684 3252-65-299     65    299.0       2923.    
   685 3252-71-365     71    365.0       2915.    
   686 3253-55-342     55    342.0       2930.    
   687 3253-60-335     60    335.0       2927.    
   688 3253-66-34      66    34.00       2925.    
   689 3253-71-323     71    323.0       2917.    
   690 3263-16-299     16    299.0       2905.    
     MULTIPLE LAYERS AND PROPORTIONS :    2, 0.70       3, 0.30
   691 3263-26-127     26    127.0       2904.    
     MULTIPLE LAYERS AND PROPORTIONS :    2, 0.70       3, 0.30
   692 3263-43-60      43    60.00       2902.    
     MULTIPLE LAYERS AND PROPORTIONS :    2, 0.70       3, 0.30
   693 3263-48-356     48    356.0       2911.    
     MULTIPLE LAYERS AND PROPORTIONS :    2, 0.70       3, 0.30
   694 3263-56-24      56    24.00       2900.    
     MULTIPLE LAYERS AND PROPORTIONS :    2, 0.70       3, 0.30
   695 3263-66-33      66    33.00       2901.    
     MULTIPLE LAYERS AND PROPORTIONS :    2, 0.70       3, 0.30
   696 3263-71-365     71    365.0       2895.    
     MULTIPLE LAYERS AND PROPORTIONS :    2, 0.70       3, 0.30
   697 3224-56-27      56    27.00       2930.    
   698 3209-33-314     33    314.0       2882.    
   699 3210-43-81      43    81.00       2884.    
     MULTIPLE LAYERS AND PROPORTIONS :    2, 0.11       3, 0.89
   700 3210-48-336     48    336.0       2887.    
     MULTIPLE LAYERS AND PROPORTIONS :    2, 0.11       3, 0.89
   701 3210-56-26      56    26.00       2894.    
     MULTIPLE LAYERS AND PROPORTIONS :    2, 0.11       3, 0.89
   702 3195-33-32      33    32.00       2815.    
     MULTIPLE LAYERS AND PROPORTIONS :    2, 0.29       3, 0.71
   703 3180-34-152     34    152.0       2820.    
     MULTIPLE LAYERS AND PROPORTIONS :    2, 0.08       3, 0.92
   704 3184-66-28      66    28.00       2857.    
   705 3184-71-62      71    62.00       2852.    
   706 3186-66-28      66    28.00       2856.    
   707 3186-71-60      71    60.00       2852.    
   708 3183-66-31      66    31.00       2872.    
   709 3207-43-7       43    7.000       2948.    
   710 3207-48-334     48    334.0       2964.    
   711 3207-56-26      56    26.00       2976.    
   712 3190-43-7       43    7.000       2890.    
   713 3190-48-336     48    336.0       2901.    
   714 3190-56-25      56    25.00       2904.    
   715 3194-71-62      71    62.00       2908.    
   716 3192-66-34      66    34.00       2931.    
   717 3192-71-60      71    60.00       2929.    
   718 3187-43-7       43    7.000       2909.    
     MULTIPLE LAYERS AND PROPORTIONS :    2, 0.48       3, 0.52
   719 3187-48-334     48    334.0       2917.    
     MULTIPLE LAYERS AND PROPORTIONS :    2, 0.48       3, 0.52
   720 3203-71-62      71    62.00       2945.    
   721 3165-71-62      71    62.00       2841.    
   722 3148-43-7       43    7.000       2842.    
     MULTIPLE LAYERS AND PROPORTIONS :    2, 0.20       3, 0.80
   723 3157-71-62      71    62.00       2841.    
   724 3152-71-62      71    62.00       2846.    
   725 3169-43-8       43    8.000       2834.    
   726 3169-48-336     48    336.0       2821.    
   727 3169-66-34      66    34.00       2822.    
   728 3169-71-61      71    61.00       2805.    
   729 3168-43-7       43    7.000       2830.    
     MULTIPLE LAYERS AND PROPORTIONS :    2, 0.70       3, 0.30
   730 3168-56-26      56    26.00       2830.    
     MULTIPLE LAYERS AND PROPORTIONS :    2, 0.70       3, 0.30
   731 3168-66-34      66    34.00       2829.    
     MULTIPLE LAYERS AND PROPORTIONS :    2, 0.70       3, 0.30
   732 3156-27-289     27    289.0       2792.    
     MULTIPLE LAYERS AND PROPORTIONS :    2, 0.40       3, 0.60
   733 3144-43-7       43    7.000       2755.    
     MULTIPLE LAYERS AND PROPORTIONS :    2, 0.26       3, 0.74
   734 3144-56-25      56    25.00       2765.    
     MULTIPLE LAYERS AND PROPORTIONS :    2, 0.26       3, 0.74
   735 3144-66-34      66    34.00       2744.    
     MULTIPLE LAYERS AND PROPORTIONS :    2, 0.26       3, 0.74
   736 3144-71-60      71    60.00       2734.    
     MULTIPLE LAYERS AND PROPORTIONS :    2, 0.26       3, 0.74
   737 3110-43-5       43    5.000       2722.    
   738 3110-48-335     48    335.0       2730.    
   739 3136-43-7       43    7.000       2851.    
     MULTIPLE LAYERS AND PROPORTIONS :    2, 0.27       3, 0.73
   740 3136-48-334     48    334.0       2861.    
     MULTIPLE LAYERS AND PROPORTIONS :    2, 0.27       3, 0.73
   741 3136-56-26      56    26.00       2868.    
     MULTIPLE LAYERS AND PROPORTIONS :    2, 0.27       3, 0.73
   742 3136-66-35      66    35.00       2846.    
     MULTIPLE LAYERS AND PROPORTIONS :    2, 0.27       3, 0.73
   743 3136-71-61      71    61.00       2827.    
     MULTIPLE LAYERS AND PROPORTIONS :    2, 0.27       3, 0.73
   744 3093-5-82        5    82.00       2709.    
   745 3093-6-97        6    97.00       2709.    
   746 3093-16-133     16    133.0       2692.    
   747 3093-26-124     26    124.0       2688.    
   748 3093-37-37      37    37.00       2684.    
   749 3093-43-7       43    7.000       2727.    
   750 3094-48-337     48    337.0       2811.    
     MULTIPLE LAYERS AND PROPORTIONS :    2, 0.48       3, 0.52
   751 3094-66-33      66    33.00       2785.    
     MULTIPLE LAYERS AND PROPORTIONS :    2, 0.48       3, 0.52
   752 3094-71-61      71    61.00       2774.    
     MULTIPLE LAYERS AND PROPORTIONS :    2, 0.48       3, 0.52
   753 3057-48-337     48    337.0       2564.    
   754 3057-56-25      56    25.00       2558.    
   755 3011-48-337     48    337.0       2533.    
     MULTIPLE LAYERS AND PROPORTIONS :    2, 0.55       3, 0.45
   756 3011-66-33      66    33.00       2460.    
     MULTIPLE LAYERS AND PROPORTIONS :    2, 0.55       3, 0.45
   757 3011-71-61      71    61.00       2447.    
     MULTIPLE LAYERS AND PROPORTIONS :    2, 0.55       3, 0.45
   758 3026-48-337     48    337.0       2520.    
     MULTIPLE LAYERS AND PROPORTIONS :    2, 0.63       3, 0.37
   759 3026-56-25      56    25.00       2554.    
     MULTIPLE LAYERS AND PROPORTIONS :    2, 0.63       3, 0.37
   760 2999-16-361     16    361.0       2530.    
     MULTIPLE LAYERS AND PROPORTIONS :    2, 0.29       3, 0.71
   761 2999-22-31      22    31.00       2533.    
     MULTIPLE LAYERS AND PROPORTIONS :    2, 0.29       3, 0.71
   762 2999-27-11      27    11.00       2522.    
     MULTIPLE LAYERS AND PROPORTIONS :    2, 0.29       3, 0.71
   763 2999-31-351     31    351.0       2526.    
     MULTIPLE LAYERS AND PROPORTIONS :    2, 0.29       3, 0.71
   764 2999-37-343     37    343.0       2520.    
     MULTIPLE LAYERS AND PROPORTIONS :    2, 0.29       3, 0.71
   765 2999-56-25      56    25.00       2568.    
     MULTIPLE LAYERS AND PROPORTIONS :    2, 0.29       3, 0.71
   766 2999-66-33      66    33.00       2500.    
     MULTIPLE LAYERS AND PROPORTIONS :    2, 0.29       3, 0.71
   767 2999-71-61      71    61.00       2475.    
     MULTIPLE LAYERS AND PROPORTIONS :    2, 0.29       3, 0.71
   768 2994-43-5       43    5.000       2561.    
   769 2994-56-25      56    25.00       2576.    
   770 3029-48-336     48    336.0       2649.    
   771 3029-56-26      56    26.00       2651.    
   772 3029-66-33      66    33.00       2616.    
   773 3008-48-336     48    336.0       2686.    
   774 3008-56-26      56    26.00       2693.    
   775 2963-1-107       1    107.0       1799.    
 Observation within a steady-state time step has been moved to the end of the time step.
   776 2948-17-4       17    4.000       1766.    
   777 2982-48-348     48    348.0       1665.    
   778 2982-55-354     55    354.0       1675.    
   779 2982-61-7       61    7.000       1679.    
   780 2982-66-55      66    55.00       1695.    
   781 2982-71-355     71    355.0       1716.    
   782 2968-71-365     71    365.0       1752.    
   783 2951-42-351     42    351.0       1676.    
   784 2951-48-348     48    348.0       1682.    
   785 2951-55-354     55    354.0       1690.    
   786 2951-61-5       61    5.000       1696.    
   787 2951-66-20      66    20.00       1714.    
   788 2951-71-355     71    355.0       1736.    
   789 2950-12-335     12    335.0       1795.    
   790 2950-55-354     55    354.0       1695.    
   791 2945-1-107       1    107.0       1802.    
 Observation within a steady-state time step has been moved to the end of the time step.
   792 2945-7-3         7    3.000       1799.    
   793 2945-10-320     10    320.0       1798.    
   794 2902-42-351     42    351.0       1680.    
   795 2902-48-348     48    348.0       1690.    
   796 2902-55-354     55    354.0       1697.    
   797 2902-61-5       61    5.000       1703.    
   798 2902-66-20      66    20.00       1715.    
   799 2902-71-355     71    355.0       1732.    
   800 2906-12-332     12    332.0       1816.    
   801 2906-17-4       17    4.000       1787.    
     MULTIPLE LAYERS AND PROPORTIONS :    2, 0.77       3, 0.23
   802 2906-22-34      22    34.00       1763.    
     MULTIPLE LAYERS AND PROPORTIONS :    2, 0.77       3, 0.23
   803 2906-32-85      32    85.00       1709.    
   804 2906-37-33      37    33.00       1693.    
     MULTIPLE LAYERS AND PROPORTIONS :    2, 0.77       3, 0.23
   805 2906-48-365     48    365.0       1698.    
[...]
 1160-26-36      2371.0000000        2455.3054199       -84.305419922    
 1121-26-36      2378.0000000        2463.5910645       -85.591064453    
 1080-26-36      2443.0000000        2478.3037109       -35.303710938    
 1048-26-36      2445.0000000        2481.3647461       -36.364746094    
 1075-26-36      2428.0000000        2473.4626465       -45.462646484    
 1016-26-36      2387.0000000        2481.1406250       -94.140625000    
 1011-26-36      2378.0000000        2482.8354492       -104.83544922    
 1083-26-35      2391.0000000        2467.3798828       -76.379882812    
 997-26-244      2404.0000000        2482.2451172       -78.245117188    
 910-26-166      2463.0000000        2503.3298340       -40.329833984    
 1212-26-64      2374.0000000        2496.5061035       -122.50610352    
 1131-26-349     2441.0000000        2473.6147461       -32.614746094    
 1188-26-60      2481.0000000        2492.2539062       -11.253906250    
 1076-26-341     2520.0000000        2531.9458008       -11.945800781    
 1000-26-18      2522.0000000        2539.7963867       -17.796386719    
 1095-26-18      2462.0000000        2496.7868652       -34.786865234    
 1035-26-61      2488.0000000        2506.2358398       -18.235839844    
 1037-26-60      2477.0000000        2494.3994141       -17.399414062    
 878-26-60       2496.0000000        2528.9980469       -32.998046875    
 1250-26-84      2437.0000000        2506.1711426       -69.171142578    
 1251-26-84      2433.0000000        2505.2038574       -72.203857422    
 1195-26-81      2500.0000000        2526.6896973       -26.689697266    
 1110-26-62      2530.0000000        2549.3947754       -19.394775391    
 1044-26-82      2565.0000000        2605.1806641       -40.180664062    
 1017-26-62      2545.0000000        2587.1726074       -42.172607422    
 973-26-95       2601.0000000        2655.2197266       -54.219726562    
 870-26-95       2615.0000000        2677.3264160       -62.326416016    
 3417-26-95      2627.0000000        2676.6679688       -49.667968750    
 1246-26-305     2722.0000000        2750.5700684       -28.570068359    
 1593-26-18      2766.0000000        2810.6760254       -44.676025391    
 757-26-141      2333.0000000        1964.3779297        368.62207031    
 758-26-1        2395.0000000        1968.8013916        426.19860840    
 722-26-64       2443.0000000        1970.0587158        472.94128418    
 737-26-1        2415.0000000        1970.5736084        444.42639160    
 656-26-1        2498.0000000        1980.5859375        517.41406250    
 602-26-1        2502.0000000        1969.7655029        532.23449707    
 598-26-1        2492.0000000        1963.9066162        528.09338379    
 720-26-1        2222.0000000        1939.9466553        282.05334473    
 674-26-43       2549.0000000        2626.5471191       -77.547119141    
 673-26-49       2545.0000000        2634.1811523       -89.181152344    
 810-26-43       2512.0000000        2554.4570312       -42.457031250    
 785-26-65       2582.0000000        2633.1494141       -51.149414062    
 681-26-96       2620.0000000        2658.0844727       -38.084472656    
 608-26-64       2631.0000000        2679.9047852       -48.904785156    
 559-26-60       2643.0000000        2705.0844727       -62.084472656    
 731-26-98       2678.0000000        2741.4741211       -63.474121094    
 683-26-91       2679.0000000        2737.0764160       -58.076416016    
 496-26-56       2578.0000000        2693.7587891       -115.75878906    
 408-26-46       2653.0000000        2770.5729980       -117.57299805    
 391-26-72       2685.0000000        2763.3532715       -78.353271484    
 451-26-85       2697.0000000        2764.7116699       -67.711669922    
 477-26-63       2661.0000000        2688.9606934       -27.960693359    
 302-26-47       2680.0000000        2822.1052246       -142.10522461    
 295-26-47       2724.0000000        2828.7314453       -104.73144531    
 281-26-47       2687.0000000        2834.7802734       -147.78027344    
 270-26-41       2694.0000000        2839.9599609       -145.95996094    
 278-26-11       2716.0000000        2828.7106934       -112.71069336    
 250-26-11       2727.0000000        2840.8305664       -113.83056641    
 3333-27-99      1707.0000000        1779.4792480       -72.479248047    
 3176-27-347     1652.0000000        1794.3267822       -142.32678223    
 3055-27-126     2453.0000000        2524.0559082       -71.055908203    
 2747-27-253     2052.0000000        2187.1567383       -135.15673828    
 995-27-236      2110.0000000        1910.6253662        199.37463379    
 778-27-348      2610.0000000        2620.3828125       -10.382812500    
 718-27-151      2631.0000000        2671.1547852       -40.154785156    
 3239-30-335     2915.0000000        2888.1132812        26.886718750    
 3181-30-185     2850.0000000        2847.7128906        2.2871093750    
 3211-30-274     2885.0000000        2918.6530762       -33.653076172    
 3189-30-181     2873.0000000        2864.8686523        8.1313476562    
 3198-30-274     2910.0000000        2895.7619629        14.238037109    
 3192-30-274     2905.0000000        2894.5192871        10.480712891    
 3124-30-213     2790.0000000        2811.9599609       -21.959960938    
 2832-30-108     2015.0000000        2152.5769043       -137.57690430    
 2673-30-244     2073.0000000        2207.5944824       -134.59448242    
 2876-30-99      2185.0000000        2270.5964355       -85.596435547    
 2774-30-91      2193.0000000        2259.5585938       -66.558593750    
 2733-30-27      2093.0000000        2212.4770508       -119.47705078    
 2603-30-29      2118.0000000        2213.9833984       -95.983398438    
 2652-30-27      2115.0000000        2220.3493652       -105.34936523    
 2576-30-30      2130.0000000        2236.9311523       -106.93115234    
 2542-30-30      2154.0000000        2246.3488770       -92.348876953    
 2505-30-29      2150.0000000        2242.2409668       -92.240966797    
 2355-30-1       2157.0000000        2250.8657227       -93.865722656    
 2464-30-29      2154.0000000        2245.2375488       -91.237548828    
 2357-30-30      2173.0000000        2260.7238770       -87.723876953    
 2373-30-30      2161.0000000        2261.3334961       -100.33349609    
 2446-30-30      2180.0000000        2269.5549316       -89.554931641    
 2445-30-121     2188.0000000        2283.2077637       -95.207763672    
 2237-30-34      2202.0000000        2295.8056641       -93.805664062    
 2137-30-35      2201.0000000        2288.0800781       -87.080078125    
 2109-30-30      2196.0000000        2280.7216797       -84.721679688    
 2038-30-1       2202.0000000        2296.5498047       -94.549804688    
 2059-30-35      2212.0000000        2302.1252441       -90.125244141    
 2227-30-273     2279.0000000        2343.9816895       -64.981689453    
 2056-30-18      2281.0000000        2345.0527344       -64.052734375    
 2019-30-111     2276.0000000        2349.2717285       -73.271728516    
 1998-30-244     2298.0000000        2392.0102539       -94.010253906    
 2086-30-14      2348.0000000        2410.6352539       -62.635253906    
 2069-30-244     2359.0000000        2426.3242188       -67.324218750    
 2081-30-105     2369.0000000        2420.7087402       -51.708740234    
 2246-30-335     2440.0000000        2510.2749023       -70.274902344    
 2001-30-305     2546.0000000        2544.8833008        1.1166992188    
 1617-30-121     2310.0000000        2353.1455078       -43.145507812    
 1391-30-43      2344.0000000        2411.6499023       -67.649902344    
 1427-30-11      2340.0000000        2399.6372070       -59.637207031    
 1400-30-42      2345.0000000        2405.6281738       -60.628173828    
 1619-30-57      2328.0000000        2381.9599609       -53.959960938    
 1693-30-51      2339.0000000        2433.2734375       -94.273437500    
 1500-30-56      2304.0000000        2401.2043457       -97.204345703    
 1312-30-349     2406.0000000        2446.6166992       -40.616699219    
 1874-30-1       2575.0000000        2581.7551270       -6.7551269531    
 1857-30-157     2523.0000000        2535.5952148       -12.595214844    
 1843-30-213     2506.0000000        2524.9182129       -18.918212891    
 1846-30-43      2486.0000000        2491.9023438       -5.9023437500    
 1676-30-79      2516.0000000        2527.2990723       -11.299072266    
 1574-30-246     2530.0000000        2557.1447754       -27.144775391    
 1368-30-60      2431.0000000        2502.0766602       -71.076660156    
 1366-30-43      2461.0000000        2515.4506836       -54.450683594    
 1348-30-43      2520.0000000        2540.9038086       -20.903808594    
 1320-30-335     2645.0000000        2607.7138672        37.286132812    
 1276-30-121     2559.0000000        2623.9526367       -64.952636719    
 1751-30-305     2638.0000000        2643.2080078       -5.2080078125    
 1752-30-305     2582.0000000        2594.3876953       -12.387695312    
 1749-30-305     2565.0000000        2587.4836426       -22.483642578    
 1754-30-130     2612.0000000        2604.4458008        7.5541992188    
 812-30-6        2350.0000000        1973.8148193        376.18518066    
 1235-30-43      2363.0000000        2440.1977539       -77.197753906    
 1197-30-43      2463.0000000        2480.3181152       -17.318115234    
 1187-30-182     2476.0000000        2497.8842773       -21.884277344    
 1194-30-1       2495.0000000        2522.0861816       -27.086181641    
 529-30-351      2510.0000000        2671.5903320       -161.59033203    
 686-30-127      2532.0000000        2616.0676270       -84.067626953    
 488-30-44       2517.0000000        2696.5073242       -179.50732422    
 485-30-351      2554.0000000        2702.3645020       -148.36450195    
 476-30-60       2570.0000000        2703.0358887       -133.03588867    
 408-30-349      2630.0000000        2772.1762695       -142.17626953    
 402-30-213      2615.0000000        2761.3496094       -146.34960938    
 366-30-42       2663.0000000        2749.1081543       -86.108154297    
 301-30-342      2660.0000000        2820.6264648       -160.62646484    
 270-30-342      2667.0000000        2841.0566406       -174.05664062    
 3376-31-2       1547.0000000        1603.1230469       -56.123046875    
 3351-31-101     1629.0000000        1694.7878418       -65.787841797    
 3272-31-104     2957.0000000        2923.8688965        33.131103516    
 3145-31-193     1750.0000000        1825.4398193       -75.439819336    
 3161-31-244     1725.0000000        1843.6098633       -118.60986328    
 3038-31-1       1696.0000000        1907.8577881       -211.85778809    
 3243-31-1       2895.0000000        2890.4309082        4.5690917969    
 3256-31-104     2929.0000000        2890.3391113        38.660888672    
 3208-31-273     2890.0000000        2857.4838867        32.516113281    
 3153-31-348     2821.0000000        2819.5439453        1.4560546875    
 3164-31-283     2845.0000000        2845.4658203      -0.46582031250    
 3093-31-104     2691.0000000        2744.9809570       -53.980957031    
 2787-31-57      1715.0000000        1867.9327393       -152.93273926    
 2734-31-1       1719.0000000        1860.2377930       -141.23779297    
 2823-31-196     1708.0000000        1880.6853027       -172.68530273    
 2927-31-29      1953.0000000        2069.1503906       -116.15039062    
 2743-31-220     2083.0000000        2198.9912109       -115.99121094    
 2756-31-252     2034.0000000        2185.2480469       -151.24804688    
 2699-31-1       2064.0000000        2200.0695801       -136.06958008    
 2687-31-266     2081.0000000        2198.9692383       -117.96923828    
 2615-31-1       1813.0000000        1871.6065674       -58.606567383    
 2650-31-60      2101.0000000        2197.1904297       -96.190429688    
 2558-31-121     2120.0000000        2218.3728027       -98.372802734    
 2475-31-120     2142.0000000        2251.4685059       -109.46850586    
 2460-31-120     2159.0000000        2254.7949219       -95.794921875    
 2427-31-120     2172.0000000        2272.2224121       -100.22241211    
 2326-31-121     2234.0000000        2308.7988281       -74.798828125    
 2212-31-121     2209.0000000        2296.9284668       -87.928466797    
 1991-31-36      2203.0000000        2293.8862305       -90.886230469    
 1958-31-36      2205.0000000        2299.4980469       -94.498046875    
 2057-31-121     2211.0000000        2308.3823242       -97.382324219    
 1951-31-36      2239.0000000        2334.0893555       -95.089355469    
 2014-31-121     2308.0000000        2369.7248535       -61.724853516    
 1974-31-120     2295.0000000        2372.8115234       -77.811523438    
 2102-31-119     2325.0000000        2403.5415039       -78.541503906    
 2054-31-91      2321.0000000        2403.9069824       -82.906982422    
 2339-31-78      2474.0000000        2509.9084473       -35.908447266    
 2330-31-196     2520.0000000        2568.8217773       -48.821777344    
 2100-31-78      2521.0000000        2533.3405762       -12.340576172    
 2043-31-211     2485.0000000        2496.6752930       -11.675292969    
 1849-31-1       2249.0000000        2342.5915527       -93.591552734    
 1471-31-113     2330.0000000        2381.4760742       -51.476074219    
 1461-31-40      2308.0000000        2393.1350098       -85.135009766    
 1321-31-40      2335.0000000        2424.9636230       -89.963623047    
 1306-31-113     2337.0000000        2426.6901855       -89.690185547    
 1307-31-113     2342.0000000        2426.8273926       -84.827392578    
 1305-31-121     2345.0000000        2428.4401855       -83.440185547    
 1886-31-119     2327.0000000        2421.5954590       -94.595458984    
 1879-31-119     2322.0000000        2414.9111328       -92.911132812    
 1779-31-119     2295.0000000        2381.8547363       -86.854736328    
 1724-31-118     2294.0000000        2379.6428223       -85.642822266    
 1694-31-119     2307.0000000        2404.7580566       -97.758056641    
 1695-31-120     2314.0000000        2400.4157715       -86.415771484    
 1596-31-119     2320.0000000        2427.8303223       -107.83032227    
 1683-31-68      2347.0000000        2447.4194336       -100.41943359    
 1552-31-117     2327.0000000        2420.8129883       -93.812988281    
 1533-31-118     2316.0000000        2407.0805664       -91.080566406    
 1813-31-117     2308.0000000        2401.8889160       -93.888916016    
 1538-31-117     2310.0000000        2398.8627930       -88.862792969    
 1470-31-117     2313.0000000        2410.7465820       -97.746582031    
 1453-31-117     2336.0000000        2433.2241211       -97.224121094    
 1502-31-120     2339.0000000        2457.7448730       -118.74487305    
 1416-31-62      2338.0000000        2406.1220703       -68.122070312    
 1784-31-148     2366.0000000        2457.6052246       -91.605224609    
 1659-31-114     2355.0000000        2463.4438477       -108.44384766    
 1671-31-114     2350.0000000        2456.7722168       -106.77221680    
 1602-31-114     2371.0000000        2502.7976074       -131.79760742    
 1507-31-114     2358.0000000        2481.8032227       -123.80322266    
 1514-31-114     2349.0000000        2474.9379883       -125.93798828    
 1495-31-69      2358.0000000        2484.1401367       -126.14013672    
 1484-31-114     2348.0000000        2482.3215332       -134.32153320    
 1483-31-114     2436.0000000        2512.1667480       -76.166748047    
 1239-31-113     2352.0000000        2436.5808105       -84.580810547    
 1234-31-113     2349.0000000        2435.2062988       -86.206298828    
 1099-31-117     2361.0000000        2479.6411133       -118.64111328    
 853-31-118      2482.0000000        2535.6936035       -53.693603516    
 720-31-1        2221.0000000        1940.3560791        280.64392090    
 729-31-118      2508.0000000        2595.0915527       -87.091552734    
 679-31-118      2516.0000000        2626.1706543       -110.17065430    
 810-31-118      2479.0000000        2553.6647949       -74.664794922    
 299-31-59       2671.0000000        2812.5866699       -141.58666992    
 3281-32-351     1586.0000000        1692.3110352       -106.31103516    
 3347-32-97      2965.0000000        2959.4992676        5.5007324219    
 3051-32-152     1691.0000000        1825.6519775       -134.65197754    
 3004-32-94      2011.0000000        2118.1779785       -107.17797852    
 2997-32-94      2234.0000000        2297.5727539       -63.572753906    
 3016-32-94      2280.0000000        2360.9577637       -80.957763672    
 3055-32-94      2452.0000000        2530.2231445       -78.223144531    
 2880-32-95      2083.0000000        2179.7192383       -96.719238281    
 2883-32-196     2011.0000000        2155.0319824       -144.03198242    
 2977-32-96      2361.0000000        2403.2702637       -42.270263672    
 2914-32-96      2130.0000000        2209.9936523       -79.993652344    
 2930-32-96      2337.0000000        2381.8828125       -44.882812500    
 2869-32-96      2320.0000000        2376.2551270       -56.255126953    
 2898-32-96      2125.0000000        2205.8547363       -80.854736328    
 2841-32-96      2182.0000000        2276.8112793       -94.811279297    
 2742-32-95      2130.0000000        2228.1179199       -98.117919922    
 2956-32-95      2527.0000000        2543.8051758       -16.805175781    
 2441-32-216     1804.0000000        1877.5052490       -73.505249023    
 2477-32-137     1798.0000000        1879.2045898       -81.204589844    
 2334-32-335     2382.0000000        2423.1606445       -41.160644531    
 2314-32-342     2365.0000000        2399.0844727       -34.084472656    
 2331-32-29      2480.0000000        2544.1259766       -64.125976562    
 2128-32-154     2478.0000000        2455.9658203        22.034179688    
 2092-32-154     2468.0000000        2457.9399414        10.060058594    
 2085-32-154     2448.0000000        2484.1352539       -36.135253906    
 1278-32-50      2361.0000000        2434.2983398       -73.298339844    
 1791-32-119     2331.0000000        2430.4064941       -99.406494141    
 1131-32-62      2436.0000000        2473.9060059       -37.906005859    
 1035-32-71      2477.0000000        2506.8291016       -29.829101562    
 2799-35-122     1998.0000000        2172.8776855       -174.87768555    
 861-35-329      2230.0000000        1923.9331055        306.06689453    
 3038-36-52      1680.0000000        1917.4920654       -237.49206543    
 2937-36-86      1764.0000000        1959.9262695       -195.92626953    
 1428-36-91      1955.0000000        1899.1724854        55.827514648    
 1106-36-164     2031.0000000        1911.4565430        119.54345703    
 727-36-333      2585.0000000        2640.8310547       -55.831054688    
 492-36-108      2478.0000000        2689.4770508       -211.47705078    
 380-36-78       2594.0000000        2748.9291992       -154.92919922    
 3318-37-364     1613.0000000        1737.5449219       -124.54492188    
 2476-37-182     2165.0000000        2280.6215820       -115.62158203    
 2437-37-1       2175.0000000        2286.6867676       -111.68676758    
 1436-37-201     2321.0000000        2448.0512695       -127.05126953    
 974-37-342      2328.0000000        2488.1977539       -160.19775391    
 981-37-84       2562.0000000        2622.3544922       -60.354492188    
 814-37-58       2570.0000000        2631.5441895       -61.544189453    
 697-37-41       2615.0000000        2683.2995605       -68.299560547    
 659-37-16       2662.0000000        2656.6232910        5.3767089844    

 HEAD/DRAWDOWN SUM OF SQUARED DIFFERENCE:    1.65784E+08

 Run end date and time (yyyy/mm/dd hh:mm:ss): 2017/11/09 12:59:09
 Elapsed run time: 38.708 Seconds

